# created with PyMOL 1.8.6.0
@<TRIPOS>MOLECULE
bs_ligand
87 90 1                 
SMALL
USER_CHARGES
@<TRIPOS>ATOM
      1 H01        12.2710   22.7220   15.5260 H         1 SUB         0.0000
      2 H02        14.8820   16.2700   12.4430 H         1 SUB         0.0000
      3 H03        13.4510   17.4550   14.1170 H         1 SUB         0.0000
      4 H04        13.1780   18.7670   16.5580 H         1 SUB         0.0000
      5 H05        13.8620   25.1050   17.8840 H         1 SUB         0.0000
      6 H06        13.1540   22.1290   18.1260 H         1 SUB         0.0000
      7 H07        11.7630   16.5530    9.5720 H         1 SUB         0.0000
      8 H08        20.1340   26.6700   17.3260 H         1 SUB         0.0000
      9 H09         8.9740   19.2800   14.1760 H         1 SUB         0.0000
     10 H10         8.1720   18.9440   11.8150 H         1 SUB         0.0000
     11 H11         9.5680   17.8050   10.1850 H         1 SUB         0.0000
     12 H12         9.7640   18.4520   16.2350 H         1 SUB         0.0000
     13 H13        13.3190   17.6640   19.0890 H         1 SUB         0.0000
     14 H14        16.1070   22.6140   17.4180 H         1 SUB         0.0000
     15 H15        15.2700   23.4920   19.6780 H         1 SUB         0.0000
     16 H16        15.2870   24.4480   15.9920 H         1 SUB         0.0000
     17 H17        18.9180   26.0610   18.9940 H         1 SUB         0.0000
     18 H18        20.8580   24.2180   18.7360 H         1 SUB         0.0000
     19 H19        17.4060   23.2920   20.9130 H         1 SUB         0.0000
     20 H20        18.4500   24.9390   14.5110 H         1 SUB         0.0000
     21 H21        21.2780   25.1100   13.7410 H         1 SUB         0.0000
     22 H22        20.9050   27.9250   16.1730 H         1 SUB         0.0000
     23 H23        12.8970   20.3200   19.1380 H         1 SUB         0.0000
     24 H24        12.8800   19.4990   22.1600 H         1 SUB         0.0000
     25 H25        16.5010   22.6030   14.6850 H         1 SUB         0.0000
     26 H26        15.9930   21.0750   12.6940 H         1 SUB         0.0000
     27 H27        13.7100   20.4350   12.2430 H         1 SUB         0.0000
     28 H28        11.8210   21.1140   13.6330 H         1 SUB         0.0000
     29 H29        13.2560   17.7680   22.3320 H         1 SUB         0.0000
     30 H30        10.0610   20.0440   15.5520 H         1 SUB         0.0000
     31 H31        14.9100   18.0530   18.4410 H         1 SUB         0.0000
     32 H32        13.5960   24.1050   16.5570 H         1 SUB         0.0000
     33 H33        20.2350   24.8220   20.3090 H         1 SUB         0.0000
     34 H34        17.0600   22.2750   19.5520 H         1 SUB         0.0000
     35 H35        19.0040   26.2180   13.4040 H         1 SUB         0.0000
     36 H36        20.6360   24.0320   15.0040 H         1 SUB         0.0000
     37 H37        20.1040   28.2040   14.6070 H         1 SUB         0.0000
     38 H38        12.3350   18.3430   20.9220 H         1 SUB         0.0000
     39 H39        18.0730   26.6430   14.8600 H         1 SUB         0.0000
     40 H40        22.0050   25.1090   15.3650 H         1 SUB         0.0000
     41 H41        21.7270   27.4750   14.6600 H         1 SUB         0.0000
     42 C1         13.8670   16.5830   12.1980 C.2       1 SUB         0.0000
     43 N1         13.3200   16.3440   11.0010 N.2       1 SUB         0.0000
     44 O1         11.4470   18.5770   15.0330 O.3       1 SUB         0.0000
     45 S1         14.6580   18.8280   20.7230 S.3       1 SUB         0.0000
     46 C2         13.0530   17.2630   13.1200 C.2       1 SUB         0.0000
     47 N2         12.7210   19.2780   17.3000 N.pl3     1 SUB         0.0000
     48 O2         14.1150   24.8580   18.7760 O.3       1 SUB         0.0000
     49 S2         19.4720   22.5960   19.8520 S.3       1 SUB         0.0000
     50 C3         11.7790   17.7000   12.8310 C.2       1 SUB         0.0000
     51 N3         14.1300   21.9310   17.9570 N.pl3     1 SUB         0.0000
     52 O3         10.7470   19.9470   18.1670 O.2       1 SUB         0.0000
     53 C4         11.2290   17.4630   11.4810 C.2       1 SUB         0.0000
     54 N4         17.6840   24.2950   19.0290 N.pl3     1 SUB         0.0000
     55 O4         16.4940   25.8450   17.9870 O.2       1 SUB         0.0000
     56 C5         12.0910   16.7600   10.5910 C.2       1 SUB         0.0000
     57 N5         19.8040   25.9480   16.7010 N.pl3     1 SUB         0.0000
     58 O5         18.8500   23.9070   16.5960 O.2       1 SUB         0.0000
     59 C6         10.9040   18.3450   13.7550 C.2       1 SUB         0.0000
     60 O6         15.8040   20.3480   17.8500 O.2       1 SUB         0.0000
     61 C7          9.6060   18.7940   13.4330 C.2       1 SUB         0.0000
     62 C8          9.1590   18.5890   12.1120 C.2       1 SUB         0.0000
     63 C9          9.9560   17.9450   11.1940 C.2       1 SUB         0.0000
     64 C10        10.5470   19.1620   15.9700 C.3       1 SUB         0.0000
     65 C11        11.3850   19.5230   17.2150 C.2       1 SUB         0.0000
     66 C12        14.0900   18.4330   19.0510 C.3       1 SUB         0.0000
     67 C13        14.6380   20.6500   18.0500 C.2       1 SUB         0.0000
     68 C14        15.1100   23.0190   17.5900 C.3       1 SUB         0.0000
     69 C15        15.2300   24.0270   18.7290 C.3       1 SUB         0.0000
     70 C16        14.5720   23.6880   16.3070 C.3       1 SUB         0.0000
     71 C17        16.4710   24.7960   18.5770 C.2       1 SUB         0.0000
     72 C18        18.9200   25.0100   18.7030 C.3       1 SUB         0.0000
     73 C19        19.9910   24.2810   19.3940 C.3       1 SUB         0.0000
     74 C20        17.7260   23.0660   19.8960 C.3       1 SUB         0.0000
     75 C21        19.0910   24.8830   17.2510 C.2       1 SUB         0.0000
     76 C22        20.1120   26.0890   15.2390 C.3       1 SUB         0.0000
     77 C23        18.8180   25.9630   14.4470 C.3       1 SUB         0.0000
     78 C24        21.0740   25.0100   14.8070 C.3       1 SUB         0.0000
     79 C25        20.7630   27.5370   15.1640 C.3       1 SUB         0.0000
     80 C26        13.5110   19.7410   18.4480 C.3       1 SUB         0.0000
     81 C27        13.1340   18.5860   21.6220 C.3       1 SUB         0.0000
     82 C28        14.3590   22.7530   15.1790 C.2       1 SUB         0.0000
     83 C29        15.4830   22.3060   14.4340 C.2       1 SUB         0.0000
     84 C30        15.1910   21.4420   13.3350 C.2       1 SUB         0.0000
     85 C31        13.9020   21.0830   13.0980 C.2       1 SUB         0.0000
     86 C32        12.8290   21.4700   13.8470 C.2       1 SUB         0.0000
     87 C33        13.0930   22.3550   14.9120 C.2       1 SUB         0.0000
@<TRIPOS>BOND
1 1 87 1
2 2 42 1
3 3 46 1
4 4 47 1
5 5 48 1
6 6 51 1
7 7 56 1
8 8 57 1
9 9 61 1
10 10 62 1
11 11 63 1
12 12 64 1
13 13 66 1
14 14 68 1
15 15 69 1
16 16 70 1
17 17 72 1
18 18 73 1
19 19 74 1
20 20 77 1
21 21 78 1
22 22 79 1
23 23 80 1
24 24 81 1
25 25 83 1
26 26 84 1
27 27 85 1
28 28 86 1
29 29 81 1
30 30 64 1
31 31 66 1
32 32 70 1
33 33 73 1
34 34 74 1
35 35 77 1
36 36 78 1
37 37 79 1
38 38 81 1
39 39 77 1
40 40 78 1
41 41 79 1
42 42 43 ar
43 42 46 ar
44 43 56 ar
45 44 59 1
46 44 64 1
47 45 66 1
48 45 81 1
49 46 50 ar
50 47 65 1
51 47 80 1
52 48 69 1
53 49 73 1
54 49 74 1
55 50 53 ar
56 50 59 ar
57 51 67 1
58 51 68 1
59 52 65 2
60 53 56 ar
61 53 63 ar
62 54 71 1
63 54 72 1
64 54 74 1
65 55 71 2
66 57 75 1
67 57 76 1
68 58 75 2
69 59 61 ar
70 60 67 2
71 61 62 ar
72 62 63 ar
73 64 65 1
74 66 80 1
75 67 80 1
76 68 69 1
77 68 70 1
78 69 71 1
79 70 82 1
80 72 73 1
81 72 75 1
82 76 77 1
83 76 78 1
84 76 79 1
85 82 83 ar
86 82 87 ar
87 83 84 ar
88 84 85 ar
89 85 86 ar
90 86 87 ar
@<TRIPOS>SUBSTRUCTURE
1	KNI900	1	GROUP	1 B	KNI
