@<TRIPOS>MOLECULE
bs_ligand
   87    90     1     0     0
SMALL
bcc


@<TRIPOS>ATOM
      1 H01         12.2710    22.7220    15.5260 ha         1 SUB       0.151000
      2 H02         14.8820    16.2700    12.4430 h4         1 SUB       0.026100
      3 H03         13.4510    17.4550    14.1170 ha         1 SUB       0.150000
      4 H04         13.1780    18.7670    16.5580 hn         1 SUB       0.334500
      5 H05         13.8620    25.1050    17.8840 ho         1 SUB       0.423000
      6 H06         13.1540    22.1290    18.1260 hn         1 SUB       0.343500
      7 H07         11.7630    16.5530     9.5720 h4         1 SUB       0.025100
      8 H08         20.1340    26.6700    17.3260 hn         1 SUB       0.308500
      9 H09          8.9740    19.2800    14.1760 ha         1 SUB       0.142000
     10 H10          8.1720    18.9440    11.8150 ha         1 SUB       0.139000
     11 H11          9.5680    17.8050    10.1850 ha         1 SUB       0.141000
     12 H12          9.7640    18.4520    16.2350 h1         1 SUB       0.083200
     13 H13         13.3190    17.6640    19.0890 h1         1 SUB       0.098700
     14 H14         16.1070    22.6140    17.4180 h1         1 SUB       0.090700
     15 H15         15.2700    23.4920    19.6780 h1         1 SUB       0.111700
     16 H16         15.2870    24.4480    15.9920 hc         1 SUB       0.070200
     17 H17         18.9180    26.0610    18.9940 h1         1 SUB       0.094700
     18 H18         20.8580    24.2180    18.7360 h1         1 SUB       0.086200
     19 H19         17.4060    23.2920    20.9130 h2         1 SUB       0.094700
     20 H20         18.4500    24.9390    14.5110 hc         1 SUB       0.046811
     21 H21         21.2780    25.1100    13.7410 hc         1 SUB       0.046811
     22 H22         20.9050    27.9250    16.1730 hc         1 SUB       0.046811
     23 H23         12.8970    20.3200    19.1380 h1         1 SUB       0.100700
     24 H24         12.8800    19.4990    22.1600 h1         1 SUB       0.066033
     25 H25         16.5010    22.6030    14.6850 ha         1 SUB       0.151000
     26 H26         15.9930    21.0750    12.6940 ha         1 SUB       0.128500
     27 H27         13.7100    20.4350    12.2430 ha         1 SUB       0.129000
     28 H28         11.8210    21.1140    13.6330 ha         1 SUB       0.128500
     29 H29         13.2560    17.7680    22.3320 h1         1 SUB       0.066033
     30 H30         10.0610    20.0440    15.5520 h1         1 SUB       0.083200
     31 H31         14.9100    18.0530    18.4410 h1         1 SUB       0.098700
     32 H32         13.5960    24.1050    16.5570 hc         1 SUB       0.070200
     33 H33         20.2350    24.8220    20.3090 h1         1 SUB       0.086200
     34 H34         17.0600    22.2750    19.5520 h2         1 SUB       0.094700
     35 H35         19.0040    26.2180    13.4040 hc         1 SUB       0.046811
     36 H36         20.6360    24.0320    15.0040 hc         1 SUB       0.046811
     37 H37         20.1040    28.2040    14.6070 hc         1 SUB       0.046811
     38 H38         12.3350    18.3430    20.9220 h1         1 SUB       0.066033
     39 H39         18.0730    26.6430    14.8600 hc         1 SUB       0.046811
     40 H40         22.0050    25.1090    15.3650 hc         1 SUB       0.046811
     41 H41         21.7270    27.4750    14.6600 hc         1 SUB       0.046811
     42 C1          13.8670    16.5830    12.1980 ca         1 SUB       0.377200
     43 N1          13.3200    16.3440    11.0010 nb         1 SUB      -0.653000
     44 O1          11.4470    18.5770    15.0330 os         1 SUB      -0.338900
     45 S1          14.6580    18.8280    20.7230 ss         1 SUB      -0.250200
     46 C2          13.0530    17.2630    13.1200 ca         1 SUB      -0.207300
     47 N2          12.7210    19.2780    17.3000 n          1 SUB      -0.546900
     48 O2          14.1150    24.8580    18.7760 oh         1 SUB      -0.579800
     49 S2          19.4720    22.5960    19.8520 ss         1 SUB      -0.286200
     50 C3          11.7790    17.7000    12.8310 ca         1 SUB      -0.025000
     51 N3          14.1300    21.9310    17.9570 n          1 SUB      -0.548900
     52 O3          10.7470    19.9470    18.1670 o          1 SUB      -0.629100
     53 C4          11.2290    17.4630    11.4810 ca         1 SUB      -0.136300
     54 N4          17.6840    24.2950    19.0290 n          1 SUB      -0.453800
     55 O4          16.4940    25.8450    17.9870 o          1 SUB      -0.617100
     56 C5          12.0910    16.7600    10.5910 ca         1 SUB       0.415200
     57 N5          19.8040    25.9480    16.7010 n          1 SUB      -0.557900
     58 O5          18.8500    23.9070    16.5960 o          1 SUB      -0.608100
     59 C6          10.9040    18.3450    13.7550 ca         1 SUB       0.135100
     60 O6          15.8040    20.3480    17.8500 o          1 SUB      -0.629100
     61 C7           9.6060    18.7940    13.4330 ca         1 SUB      -0.195000
     62 C8           9.1590    18.5890    12.1120 ca         1 SUB      -0.098000
     63 C9           9.9560    17.9450    11.1940 ca         1 SUB      -0.128000
     64 C10         10.5470    19.1620    15.9700 c3         1 SUB       0.055400
     65 C11         11.3850    19.5230    17.2150 c          1 SUB       0.667100
     66 C12         14.0900    18.4330    19.0510 c3         1 SUB      -0.043300
     67 C13         14.6380    20.6500    18.0500 c          1 SUB       0.643100
     68 C14         15.1100    23.0190    17.5900 c3         1 SUB       0.085700
     69 C15         15.2300    24.0270    18.7290 c3         1 SUB       0.064100
     70 C16         14.5720    23.6880    16.3070 c3         1 SUB      -0.054100
     71 C17         16.4710    24.7960    18.5770 c          1 SUB       0.647100
     72 C18         18.9200    25.0100    18.7030 c3         1 SUB       0.041700
     73 C19         19.9910    24.2810    19.3940 c3         1 SUB      -0.015300
     74 C20         17.7260    23.0660    19.8960 c3         1 SUB       0.171100
     75 C21         19.0910    24.8830    17.2510 c          1 SUB       0.651100
     76 C22         20.1120    26.0890    15.2390 c3         1 SUB       0.121400
     77 C23         18.8180    25.9630    14.4470 c3         1 SUB      -0.108433
     78 C24         21.0740    25.0100    14.8070 c3         1 SUB      -0.108433
     79 C25         20.7630    27.5370    15.1640 c3         1 SUB      -0.108433
     80 C26         13.5110    19.7410    18.4480 c3         1 SUB       0.042700
     81 C27         13.1340    18.5860    21.6220 c3         1 SUB      -0.057000
     82 C28         14.3590    22.7530    15.1790 ca         1 SUB      -0.086300
     83 C29         15.4830    22.3060    14.4340 ca         1 SUB      -0.122000
     84 C30         15.1910    21.4420    13.3350 ca         1 SUB      -0.138000
     85 C31         13.9020    21.0830    13.0980 ca         1 SUB      -0.130000
     86 C32         12.8290    21.4700    13.8470 ca         1 SUB      -0.138000
     87 C33         13.0930    22.3550    14.9120 ca         1 SUB      -0.122000
@<TRIPOS>BOND
     1     1    87 1   
     2     2    42 1   
     3     3    46 1   
     4     4    47 1   
     5     5    48 1   
     6     6    51 1   
     7     7    56 1   
     8     8    57 1   
     9     9    61 1   
    10    10    62 1   
    11    11    63 1   
    12    12    64 1   
    13    13    66 1   
    14    14    68 1   
    15    15    69 1   
    16    16    70 1   
    17    17    72 1   
    18    18    73 1   
    19    19    74 1   
    20    20    77 1   
    21    21    78 1   
    22    22    79 1   
    23    23    80 1   
    24    24    81 1   
    25    25    83 1   
    26    26    84 1   
    27    27    85 1   
    28    28    86 1   
    29    29    81 1   
    30    30    64 1   
    31    31    66 1   
    32    32    70 1   
    33    33    73 1   
    34    34    74 1   
    35    35    77 1   
    36    36    78 1   
    37    37    79 1   
    38    38    81 1   
    39    39    77 1   
    40    40    78 1   
    41    41    79 1   
    42    42    43 ar  
    43    42    46 ar  
    44    43    56 ar  
    45    44    59 1   
    46    44    64 1   
    47    45    66 1   
    48    45    81 1   
    49    46    50 ar  
    50    47    65 1   
    51    47    80 1   
    52    48    69 1   
    53    49    73 1   
    54    49    74 1   
    55    50    53 ar  
    56    50    59 ar  
    57    51    67 1   
    58    51    68 1   
    59    52    65 2   
    60    53    56 ar  
    61    53    63 ar  
    62    54    71 1   
    63    54    72 1   
    64    54    74 1   
    65    55    71 2   
    66    57    75 1   
    67    57    76 1   
    68    58    75 2   
    69    59    61 ar  
    70    60    67 2   
    71    61    62 ar  
    72    62    63 ar  
    73    64    65 1   
    74    66    80 1   
    75    67    80 1   
    76    68    69 1   
    77    68    70 1   
    78    69    71 1   
    79    70    82 1   
    80    72    73 1   
    81    72    75 1   
    82    76    77 1   
    83    76    78 1   
    84    76    79 1   
    85    82    83 ar  
    86    82    87 ar  
    87    83    84 ar  
    88    84    85 ar  
    89    85    86 ar  
    90    86    87 ar  
@<TRIPOS>SUBSTRUCTURE
     1 SUB         1 TEMP              0 ****  ****    0 ROOT
