@<TRIPOS>MOLECULE
****
 35148     0     0   0     0
SMALL
USER_CHARGES


@<TRIPOS>ATOM
      0 WAT         1.1590   17.8440   27.3410 O         0 WAT       0.0453
      1 WAT         1.1590   18.0940   27.0910 O         1 WAT       0.0469
      2 WAT         1.1590   18.0940   27.3410 O         2 WAT       0.0455
      3 WAT         1.1590   18.3440   27.0910 O         3 WAT       0.0468
      4 WAT         1.1590   20.3440   25.8410 O         4 WAT       0.0510
      5 WAT         1.1590   20.3440   26.0910 O         5 WAT       0.0521
      6 WAT         1.1590   20.3440   26.3410 O         6 WAT       0.0482
      7 WAT         1.1590   20.5940   25.3410 O         7 WAT       0.0453
      8 WAT         1.1590   20.5940   25.5910 O         8 WAT       0.0618
      9 WAT         1.1590   20.5940   25.8410 O         9 WAT       0.0744
     10 WAT         1.1590   20.5940   26.0910 O        10 WAT       0.0763
     11 WAT         1.1590   20.5940   26.3410 O        11 WAT       0.0681
     12 WAT         1.1590   20.5940   26.5910 O        12 WAT       0.0566
     13 WAT         1.1590   20.5940   26.8410 O        13 WAT       0.0474
     14 WAT         1.1590   20.8440   25.3410 O        14 WAT       0.0593
     15 WAT         1.1590   20.8440   25.5910 O        15 WAT       0.0846
     16 WAT         1.1590   20.8440   25.8410 O        16 WAT       0.1008
     17 WAT         1.1590   20.8440   26.0910 O        17 WAT       0.0978
     18 WAT         1.1590   20.8440   26.3410 O        18 WAT       0.0798
     19 WAT         1.1590   20.8440   26.5910 O        19 WAT       0.0596
     20 WAT         1.1590   20.8440   26.8410 O        20 WAT       0.0454
     21 WAT         1.1590   21.0940   16.0910 O        21 WAT       0.0487
     22 WAT         1.1590   21.0940   16.3410 O        22 WAT       0.0600
     23 WAT         1.1590   21.0940   16.5910 O        23 WAT       0.0596
     24 WAT         1.1590   21.0940   16.8410 O        24 WAT       0.0482
     25 WAT         1.1590   21.0940   25.3410 O        25 WAT       0.0713
     26 WAT         1.1590   21.0940   25.5910 O        26 WAT       0.0987
     27 WAT         1.1590   21.0940   25.8410 O        27 WAT       0.1105
     28 WAT         1.1590   21.0940   26.0910 O        28 WAT       0.0980
     29 WAT         1.1590   21.0940   26.3410 O        29 WAT       0.0709
     30 WAT         1.1590   21.0940   26.5910 O        30 WAT       0.0458
     31 WAT         1.1590   21.3440   15.5910 O        31 WAT       0.0466
     32 WAT         1.1590   21.3440   15.8410 O        32 WAT       0.0779
     33 WAT         1.1590   21.3440   16.0910 O        33 WAT       0.1040
     34 WAT         1.1590   21.3440   16.3410 O        34 WAT       0.1102
     35 WAT         1.1590   21.3440   16.5910 O        35 WAT       0.0921
     36 WAT         1.1590   21.3440   16.8410 O        36 WAT       0.0611
     37 WAT         1.1590   21.3440   25.0910 O        37 WAT       0.0462
     38 WAT         1.1590   21.3440   25.3410 O        38 WAT       0.0696
     39 WAT         1.1590   21.3440   25.5910 O        39 WAT       0.0887
     40 WAT         1.1590   21.3440   25.8410 O        40 WAT       0.0905
     41 WAT         1.1590   21.3440   26.0910 O        41 WAT       0.0722
     42 WAT         1.1590   21.3440   26.3410 O        42 WAT       0.0457
     43 WAT         1.1590   21.5940   15.3410 O        43 WAT       0.0518
     44 WAT         1.1590   21.5940   15.5910 O        44 WAT       0.0956
     45 WAT         1.1590   21.5940   15.8410 O        45 WAT       0.1424
     46 WAT         1.1590   21.5940   16.0910 O        46 WAT       0.1679
     47 WAT         1.1590   21.5940   16.3410 O        47 WAT       0.1548
     48 WAT         1.1590   21.5940   16.5910 O        48 WAT       0.1109
     49 WAT         1.1590   21.5940   16.8410 O        49 WAT       0.0616
     50 WAT         1.1590   21.5940   25.3410 O        50 WAT       0.0514
     51 WAT         1.1590   21.5940   25.5910 O        51 WAT       0.0586
     52 WAT         1.1590   21.5940   25.8410 O        52 WAT       0.0533
     53 WAT         1.1590   21.8440   15.0910 O        53 WAT       0.0456
     54 WAT         1.1590   21.8440   15.3410 O        54 WAT       0.0878
     55 WAT         1.1590   21.8440   15.5910 O        55 WAT       0.1438
     56 WAT         1.1590   21.8440   15.8410 O        56 WAT       0.1900
     57 WAT         1.1590   21.8440   16.0910 O        57 WAT       0.1973
     58 WAT         1.1590   21.8440   16.3410 O        58 WAT       0.1587
     59 WAT         1.1590   21.8440   16.5910 O        59 WAT       0.0980
     60 WAT         1.1590   21.8440   16.8410 O        60 WAT       0.0461
     61 WAT         1.1590   22.0940   15.0910 O        61 WAT       0.0662
     62 WAT         1.1590   22.0940   15.3410 O        62 WAT       0.1102
     63 WAT         1.1590   22.0940   15.5910 O        63 WAT       0.1576
     64 WAT         1.1590   22.0940   15.8410 O        64 WAT       0.1822
     65 WAT         1.1590   22.0940   16.0910 O        65 WAT       0.1654
     66 WAT         1.1590   22.0940   16.3410 O        66 WAT       0.1155
     67 WAT         1.1590   22.0940   16.5910 O        67 WAT       0.0613
     68 WAT         1.1590   22.3440   10.3410 O        68 WAT       0.0480
     69 WAT         1.1590   22.3440   10.5910 O        69 WAT       0.0505
     70 WAT         1.1590   22.3440   10.8410 O        70 WAT       0.0497
     71 WAT         1.1590   22.3440   13.3410 O        71 WAT       0.0465
     72 WAT         1.1590   22.3440   13.5910 O        72 WAT       0.0458
     73 WAT         1.1590   22.3440   14.8410 O        73 WAT       0.0500
     74 WAT         1.1590   22.3440   15.0910 O        74 WAT       0.0733
     75 WAT         1.1590   22.3440   15.3410 O        75 WAT       0.1028
     76 WAT         1.1590   22.3440   15.5910 O        76 WAT       0.1253
     77 WAT         1.1590   22.3440   15.8410 O        77 WAT       0.1248
     78 WAT         1.1590   22.3440   16.0910 O        78 WAT       0.0977
     79 WAT         1.1590   22.3440   16.3410 O        79 WAT       0.0586
     80 WAT         1.1590   22.5940   10.0910 O        80 WAT       0.0485
     81 WAT         1.1590   22.5940   10.3410 O        81 WAT       0.0530
     82 WAT         1.1590   22.5940   10.5910 O        82 WAT       0.0536
     83 WAT         1.1590   22.5940   10.8410 O        83 WAT       0.0505
     84 WAT         1.1590   22.5940   13.0910 O        84 WAT       0.0533
     85 WAT         1.1590   22.5940   13.3410 O        85 WAT       0.0602
     86 WAT         1.1590   22.5940   13.5910 O        86 WAT       0.0599
     87 WAT         1.1590   22.5940   13.8410 O        87 WAT       0.0543
     88 WAT         1.1590   22.5940   14.0910 O        88 WAT       0.0473
     89 WAT         1.1590   22.5940   14.8410 O        89 WAT       0.0506
     90 WAT         1.1590   22.5940   15.0910 O        90 WAT       0.0618
     91 WAT         1.1590   22.5940   15.3410 O        91 WAT       0.0717
     92 WAT         1.1590   22.5940   15.5910 O        92 WAT       0.0726
     93 WAT         1.1590   22.5940   15.8410 O        93 WAT       0.0608
     94 WAT         1.1590   22.8440   10.0910 O        94 WAT       0.0485
     95 WAT         1.1590   22.8440   10.3410 O        95 WAT       0.0520
     96 WAT         1.1590   22.8440   10.5910 O        96 WAT       0.0502
     97 WAT         1.1590   22.8440   12.8410 O        97 WAT       0.0453
     98 WAT         1.1590   22.8440   13.0910 O        98 WAT       0.0590
     99 WAT         1.1590   22.8440   13.3410 O        99 WAT       0.0673
    100 WAT         1.1590   22.8440   13.5910 O       100 WAT       0.0680
    101 WAT         1.1590   22.8440   13.8410 O       101 WAT       0.0620
    102 WAT         1.1590   22.8440   14.0910 O       102 WAT       0.0530
    103 WAT         1.1590   22.8440   14.3410 O       103 WAT       0.0453
    104 WAT         1.1590   23.0940   13.0910 O       104 WAT       0.0552
    105 WAT         1.1590   23.0940   13.3410 O       105 WAT       0.0641
    106 WAT         1.1590   23.0940   13.5910 O       106 WAT       0.0660
    107 WAT         1.1590   23.0940   13.8410 O       107 WAT       0.0606
    108 WAT         1.1590   23.0940   14.0910 O       108 WAT       0.0507
    109 WAT         1.1590   23.3440   13.3410 O       109 WAT       0.0520
    110 WAT         1.1590   23.3440   13.5910 O       110 WAT       0.0549
    111 WAT         1.1590   23.3440   13.8410 O       111 WAT       0.0512
    112 WAT         1.1590   23.8440    8.0910 O       112 WAT       0.0478
    113 WAT         1.1590   23.8440    8.3410 O       113 WAT       0.0540
    114 WAT         1.1590   23.8440    8.5910 O       114 WAT       0.0591
    115 WAT         1.1590   23.8440    8.8410 O       115 WAT       0.0603
    116 WAT         1.1590   23.8440    9.0910 O       116 WAT       0.0551
    117 WAT         1.1590   24.0940    7.8410 O       117 WAT       0.0472
    118 WAT         1.1590   24.0940    8.0910 O       118 WAT       0.0533
    119 WAT         1.1590   24.0940    8.3410 O       119 WAT       0.0624
    120 WAT         1.1590   24.0940    8.5910 O       120 WAT       0.0729
    121 WAT         1.1590   24.0940    8.8410 O       121 WAT       0.0811
    122 WAT         1.1590   24.0940    9.0910 O       122 WAT       0.0807
    123 WAT         1.1590   24.0940    9.3410 O       123 WAT       0.0682
    124 WAT         1.1590   24.0940    9.5910 O       124 WAT       0.0481
    125 WAT         1.1590   24.3440    6.0910 O       125 WAT       0.0465
    126 WAT         1.1590   24.3440    6.3410 O       126 WAT       0.0517
    127 WAT         1.1590   24.3440    6.5910 O       127 WAT       0.0519
    128 WAT         1.1590   24.3440    6.8410 O       128 WAT       0.0489
    129 WAT         1.1590   24.3440    8.3410 O       129 WAT       0.0538
    130 WAT         1.1590   24.3440    8.5910 O       130 WAT       0.0687
    131 WAT         1.1590   24.3440    8.8410 O       131 WAT       0.0853
    132 WAT         1.1590   24.3440    9.0910 O       132 WAT       0.0950
    133 WAT         1.1590   24.3440    9.3410 O       133 WAT       0.0888
    134 WAT         1.1590   24.3440    9.5910 O       134 WAT       0.0673
    135 WAT         1.1590   24.3440   13.8410 O       135 WAT       0.0561
    136 WAT         1.1590   24.3440   14.0910 O       136 WAT       0.0624
    137 WAT         1.1590   24.3440   14.3410 O       137 WAT       0.0469
    138 WAT         1.1590   24.5940    5.8410 O       138 WAT       0.0540
    139 WAT         1.1590   24.5940    6.0910 O       139 WAT       0.0640
    140 WAT         1.1590   24.5940    6.3410 O       140 WAT       0.0639
    141 WAT         1.1590   24.5940    6.5910 O       141 WAT       0.0561
    142 WAT         1.1590   24.5940    6.8410 O       142 WAT       0.0456
    143 WAT         1.1590   24.5940    8.5910 O       143 WAT       0.0498
    144 WAT         1.1590   24.5940    8.8410 O       144 WAT       0.0708
    145 WAT         1.1590   24.5940    9.0910 O       145 WAT       0.0905
    146 WAT         1.1590   24.5940    9.3410 O       146 WAT       0.0962
    147 WAT         1.1590   24.5940    9.5910 O       147 WAT       0.0817
    148 WAT         1.1590   24.5940    9.8410 O       148 WAT       0.0542
    149 WAT         1.1590   24.5940   13.5910 O       149 WAT       0.0599
    150 WAT         1.1590   24.5940   13.8410 O       150 WAT       0.0980
    151 WAT         1.1590   24.5940   14.0910 O       151 WAT       0.1082
    152 WAT         1.1590   24.5940   14.3410 O       152 WAT       0.0791
    153 WAT         1.1590   24.8440    5.5910 O       153 WAT       0.0522
    154 WAT         1.1590   24.8440    5.8410 O       154 WAT       0.0700
    155 WAT         1.1590   24.8440    6.0910 O       155 WAT       0.0757
    156 WAT         1.1590   24.8440    6.3410 O       156 WAT       0.0673
    157 WAT         1.1590   24.8440    6.5910 O       157 WAT       0.0512
    158 WAT         1.1590   24.8440    8.8410 O       158 WAT       0.0476
    159 WAT         1.1590   24.8440    9.0910 O       159 WAT       0.0714
    160 WAT         1.1590   24.8440    9.3410 O       160 WAT       0.0881
    161 WAT         1.1590   24.8440    9.5910 O       161 WAT       0.0856
    162 WAT         1.1590   24.8440    9.8410 O       162 WAT       0.0636
    163 WAT         1.1590   24.8440   13.5910 O       163 WAT       0.0966
    164 WAT         1.1590   24.8440   13.8410 O       164 WAT       0.1531
    165 WAT         1.1590   24.8440   14.0910 O       165 WAT       0.1621
    166 WAT         1.1590   24.8440   14.3410 O       166 WAT       0.1132
    167 WAT         1.1590   24.8440   14.5910 O       167 WAT       0.0514
    168 WAT         1.1590   25.0940    5.5910 O       168 WAT       0.0648
    169 WAT         1.1590   25.0940    5.8410 O       169 WAT       0.0799
    170 WAT         1.1590   25.0940    6.0910 O       170 WAT       0.0782
    171 WAT         1.1590   25.0940    6.3410 O       171 WAT       0.0615
    172 WAT         1.1590   25.0940    9.0910 O       172 WAT       0.0482
    173 WAT         1.1590   25.0940    9.3410 O       173 WAT       0.0698
    174 WAT         1.1590   25.0940    9.5910 O       174 WAT       0.0783
    175 WAT         1.1590   25.0940    9.8410 O       175 WAT       0.0662
    176 WAT         1.1590   25.0940   13.3410 O       176 WAT       0.0598
    177 WAT         1.1590   25.0940   13.5910 O       177 WAT       0.1339
    178 WAT         1.1590   25.0940   13.8410 O       178 WAT       0.2019
    179 WAT         1.1590   25.0940   14.0910 O       179 WAT       0.2034
    180 WAT         1.1590   25.0940   14.3410 O       180 WAT       0.1355
    181 WAT         1.1590   25.0940   14.5910 O       181 WAT       0.0588
    182 WAT         1.1590   25.3440    5.3410 O       182 WAT       0.0509
    183 WAT         1.1590   25.3440    5.5910 O       183 WAT       0.0732
    184 WAT         1.1590   25.3440    5.8410 O       184 WAT       0.0826
    185 WAT         1.1590   25.3440    6.0910 O       185 WAT       0.0728
    186 WAT         1.1590   25.3440    6.3410 O       186 WAT       0.0508
    187 WAT         1.1590   25.3440    9.3410 O       187 WAT       0.0499
    188 WAT         1.1590   25.3440    9.5910 O       188 WAT       0.0653
    189 WAT         1.1590   25.3440    9.8410 O       189 WAT       0.0636
    190 WAT         1.1590   25.3440   10.0910 O       190 WAT       0.0455
    191 WAT         1.1590   25.3440   13.3410 O       191 WAT       0.0743
    192 WAT         1.1590   25.3440   13.5910 O       192 WAT       0.1571
    193 WAT         1.1590   25.3440   13.8410 O       193 WAT       0.2243
    194 WAT         1.1590   25.3440   14.0910 O       194 WAT       0.2150
    195 WAT         1.1590   25.3440   14.3410 O       195 WAT       0.1372
    196 WAT         1.1590   25.3440   14.5910 O       196 WAT       0.0573
    197 WAT         1.1590   25.5940    5.3410 O       197 WAT       0.0569
    198 WAT         1.1590   25.5940    5.5910 O       198 WAT       0.0766
    199 WAT         1.1590   25.5940    5.8410 O       199 WAT       0.0796
    200 WAT         1.1590   25.5940    6.0910 O       200 WAT       0.0638
    201 WAT         1.1590   25.5940    9.5910 O       201 WAT       0.0526
    202 WAT         1.1590   25.5940    9.8410 O       202 WAT       0.0592
    203 WAT         1.1590   25.5940   10.0910 O       203 WAT       0.0483
    204 WAT         1.1590   25.5940   13.3410 O       204 WAT       0.0788
    205 WAT         1.1590   25.5940   13.5910 O       205 WAT       0.1573
    206 WAT         1.1590   25.5940   13.8410 O       206 WAT       0.2128
    207 WAT         1.1590   25.5940   14.0910 O       207 WAT       0.1948
    208 WAT         1.1590   25.5940   14.3410 O       208 WAT       0.1198
    209 WAT         1.1590   25.5940   14.5910 O       209 WAT       0.0487
    210 WAT         1.1590   25.8440    5.3410 O       210 WAT       0.0585
    211 WAT         1.1590   25.8440    5.5910 O       211 WAT       0.0750
    212 WAT         1.1590   25.8440    5.8410 O       212 WAT       0.0735
    213 WAT         1.1590   25.8440    6.0910 O       213 WAT       0.0547
    214 WAT         1.1590   25.8440    9.8410 O       214 WAT       0.0565
    215 WAT         1.1590   25.8440   10.0910 O       215 WAT       0.0515
    216 WAT         1.1590   25.8440   13.3410 O       216 WAT       0.0715
    217 WAT         1.1590   25.8440   13.5910 O       217 WAT       0.1359
    218 WAT         1.1590   25.8440   13.8410 O       218 WAT       0.1755
    219 WAT         1.1590   25.8440   14.0910 O       219 WAT       0.1546
    220 WAT         1.1590   25.8440   14.3410 O       220 WAT       0.0924
    221 WAT         1.1590   26.0940    5.3410 O       221 WAT       0.0560
    222 WAT         1.1590   26.0940    5.5910 O       222 WAT       0.0700
    223 WAT         1.1590   26.0940    5.8410 O       223 WAT       0.0662
    224 WAT         1.1590   26.0940    6.0910 O       224 WAT       0.0470
    225 WAT         1.1590   26.0940    9.8410 O       225 WAT       0.0573
    226 WAT         1.1590   26.0940   10.0910 O       226 WAT       0.0560
    227 WAT         1.1590   26.0940   13.3410 O       227 WAT       0.0557
    228 WAT         1.1590   26.0940   13.5910 O       228 WAT       0.1023
    229 WAT         1.1590   26.0940   13.8410 O       229 WAT       0.1282
    230 WAT         1.1590   26.0940   14.0910 O       230 WAT       0.1105
    231 WAT         1.1590   26.0940   14.3410 O       231 WAT       0.0653
    232 WAT         1.1590   26.3440    5.3410 O       232 WAT       0.0516
    233 WAT         1.1590   26.3440    5.5910 O       233 WAT       0.0640
    234 WAT         1.1590   26.3440    5.8410 O       234 WAT       0.0598
    235 WAT         1.1590   26.3440    9.8410 O       235 WAT       0.0618
    236 WAT         1.1590   26.3440   10.0910 O       236 WAT       0.0614
    237 WAT         1.1590   26.3440   13.5910 O       237 WAT       0.0687
    238 WAT         1.1590   26.3440   13.8410 O       238 WAT       0.0858
    239 WAT         1.1590   26.3440   14.0910 O       239 WAT       0.0744
    240 WAT         1.1590   26.5940    5.3410 O       240 WAT       0.0480
    241 WAT         1.1590   26.5940    5.5910 O       241 WAT       0.0601
    242 WAT         1.1590   26.5940    5.8410 O       242 WAT       0.0567
    243 WAT         1.1590   26.5940    9.5910 O       243 WAT       0.0493
    244 WAT         1.1590   26.5940    9.8410 O       244 WAT       0.0686
    245 WAT         1.1590   26.5940   10.0910 O       245 WAT       0.0660
    246 WAT         1.1590   26.5940   13.8410 O       246 WAT       0.0565
    247 WAT         1.1590   26.5940   14.0910 O       247 WAT       0.0515
    248 WAT         1.1590   26.8440    5.3410 O       248 WAT       0.0469
    249 WAT         1.1590   26.8440    5.5910 O       249 WAT       0.0604
    250 WAT         1.1590   26.8440    5.8410 O       250 WAT       0.0589
    251 WAT         1.1590   26.8440    9.5910 O       251 WAT       0.0590
    252 WAT         1.1590   26.8440    9.8410 O       252 WAT       0.0763
    253 WAT         1.1590   26.8440   10.0910 O       253 WAT       0.0687
    254 WAT         1.1590   27.0940    5.3410 O       254 WAT       0.0479
    255 WAT         1.1590   27.0940    5.5910 O       255 WAT       0.0646
    256 WAT         1.1590   27.0940    5.8410 O       256 WAT       0.0672
    257 WAT         1.1590   27.0940    6.0910 O       257 WAT       0.0528
    258 WAT         1.1590   27.0940    9.5910 O       258 WAT       0.0711
    259 WAT         1.1590   27.0940    9.8410 O       259 WAT       0.0832
    260 WAT         1.1590   27.0940   10.0910 O       260 WAT       0.0686
    261 WAT         1.1590   27.3440    5.3410 O       261 WAT       0.0490
    262 WAT         1.1590   27.3440    5.5910 O       262 WAT       0.0705
    263 WAT         1.1590   27.3440    5.8410 O       263 WAT       0.0799
    264 WAT         1.1590   27.3440    6.0910 O       264 WAT       0.0700
    265 WAT         1.1590   27.3440    6.3410 O       265 WAT       0.0477
    266 WAT         1.1590   27.3440    9.3410 O       266 WAT       0.0594
    267 WAT         1.1590   27.3440    9.5910 O       267 WAT       0.0838
    268 WAT         1.1590   27.3440    9.8410 O       268 WAT       0.0868
    269 WAT         1.1590   27.3440   10.0910 O       269 WAT       0.0645
    270 WAT         1.1590   27.3440   18.0910 O       270 WAT       0.0580
    271 WAT         1.1590   27.3440   18.3410 O       271 WAT       0.0704
    272 WAT         1.1590   27.3440   18.5910 O       272 WAT       0.0541
    273 WAT         1.1590   27.5940    5.3410 O       273 WAT       0.0478
    274 WAT         1.1590   27.5940    5.5910 O       274 WAT       0.0737
    275 WAT         1.1590   27.5940    5.8410 O       275 WAT       0.0920
    276 WAT         1.1590   27.5940    6.0910 O       276 WAT       0.0909
    277 WAT         1.1590   27.5940    6.3410 O       277 WAT       0.0717
    278 WAT         1.1590   27.5940    6.5910 O       278 WAT       0.0463
    279 WAT         1.1590   27.5940    9.0910 O       279 WAT       0.0498
    280 WAT         1.1590   27.5940    9.3410 O       280 WAT       0.0785
    281 WAT         1.1590   27.5940    9.5910 O       281 WAT       0.0951
    282 WAT         1.1590   27.5940    9.8410 O       282 WAT       0.0860
    283 WAT         1.1590   27.5940   10.0910 O       283 WAT       0.0566
    284 WAT         1.1590   27.5940   17.8410 O       284 WAT       0.0885
    285 WAT         1.1590   27.5940   18.0910 O       285 WAT       0.1628
    286 WAT         1.1590   27.5940   18.3410 O       286 WAT       0.1913
    287 WAT         1.1590   27.5940   18.5910 O       287 WAT       0.1431
    288 WAT         1.1590   27.5940   18.8410 O       288 WAT       0.0673
    289 WAT         1.1590   27.8440    5.5910 O       289 WAT       0.0697
    290 WAT         1.1590   27.8440    5.8410 O       290 WAT       0.0957
    291 WAT         1.1590   27.8440    6.0910 O       291 WAT       0.1070
    292 WAT         1.1590   27.8440    6.3410 O       292 WAT       0.0977
    293 WAT         1.1590   27.8440    6.5910 O       293 WAT       0.0751
    294 WAT         1.1590   27.8440    6.8410 O       294 WAT       0.0512
    295 WAT         1.1590   27.8440    9.0910 O       295 WAT       0.0716
    296 WAT         1.1590   27.8440    9.3410 O       296 WAT       0.0963
    297 WAT         1.1590   27.8440    9.5910 O       297 WAT       0.1014
    298 WAT         1.1590   27.8440    9.8410 O       298 WAT       0.0803
    299 WAT         1.1590   27.8440   10.0910 O       299 WAT       0.0468
    300 WAT         1.1590   27.8440   17.5910 O       300 WAT       0.0588
    301 WAT         1.1590   27.8440   17.8410 O       301 WAT       0.1644
    302 WAT         1.1590   27.8440   18.0910 O       302 WAT       0.2934
    303 WAT         1.1590   27.8440   18.3410 O       303 WAT       0.3350
    304 WAT         1.1590   27.8440   18.5910 O       304 WAT       0.2434
    305 WAT         1.1590   27.8440   18.8410 O       305 WAT       0.1116
    306 WAT         1.1590   28.0940    5.5910 O       306 WAT       0.0575
    307 WAT         1.1590   28.0940    5.8410 O       307 WAT       0.0858
    308 WAT         1.1590   28.0940    6.0910 O       308 WAT       0.1082
    309 WAT         1.1590   28.0940    6.3410 O       309 WAT       0.1144
    310 WAT         1.1590   28.0940    6.5910 O       310 WAT       0.1034
    311 WAT         1.1590   28.0940    6.8410 O       311 WAT       0.0835
    312 WAT         1.1590   28.0940    7.0910 O       312 WAT       0.0634
    313 WAT         1.1590   28.0940    7.3410 O       313 WAT       0.0479
    314 WAT         1.1590   28.0940    8.5910 O       314 WAT       0.0478
    315 WAT         1.1590   28.0940    8.8410 O       315 WAT       0.0665
    316 WAT         1.1590   28.0940    9.0910 O       316 WAT       0.0896
    317 WAT         1.1590   28.0940    9.3410 O       317 WAT       0.1043
    318 WAT         1.1590   28.0940    9.5910 O       318 WAT       0.0971
    319 WAT         1.1590   28.0940    9.8410 O       319 WAT       0.0688
    320 WAT         1.1590   28.0940   17.5910 O       320 WAT       0.0731
    321 WAT         1.1590   28.0940   17.8410 O       321 WAT       0.1988
    322 WAT         1.1590   28.0940   18.0910 O       322 WAT       0.3457
    323 WAT         1.1590   28.0940   18.3410 O       323 WAT       0.3839
    324 WAT         1.1590   28.0940   18.5910 O       324 WAT       0.2708
    325 WAT         1.1590   28.0940   18.8410 O       325 WAT       0.1205
    326 WAT         1.1590   28.0940   25.3410 O       326 WAT       0.0736
    327 WAT         1.1590   28.0940   25.5910 O       327 WAT       0.0982
    328 WAT         1.1590   28.0940   25.8410 O       328 WAT       0.0814
    329 WAT         1.1590   28.3440    5.8410 O       329 WAT       0.0647
    330 WAT         1.1590   28.3440    6.0910 O       330 WAT       0.0911
    331 WAT         1.1590   28.3440    6.3410 O       331 WAT       0.1102
    332 WAT         1.1590   28.3440    6.5910 O       332 WAT       0.1150
    333 WAT         1.1590   28.3440    6.8410 O       333 WAT       0.1067
    334 WAT         1.1590   28.3440    7.0910 O       334 WAT       0.0920
    335 WAT         1.1590   28.3440    7.3410 O       335 WAT       0.0776
    336 WAT         1.1590   28.3440    7.5910 O       336 WAT       0.0673
    337 WAT         1.1590   28.3440    7.8410 O       337 WAT       0.0620
    338 WAT         1.1590   28.3440    8.0910 O       338 WAT       0.0607
    339 WAT         1.1590   28.3440    8.3410 O       339 WAT       0.0627
    340 WAT         1.1590   28.3440    8.5910 O       340 WAT       0.0694
    341 WAT         1.1590   28.3440    8.8410 O       341 WAT       0.0813
    342 WAT         1.1590   28.3440    9.0910 O       342 WAT       0.0936
    343 WAT         1.1590   28.3440    9.3410 O       343 WAT       0.0955
    344 WAT         1.1590   28.3440    9.5910 O       344 WAT       0.0798
    345 WAT         1.1590   28.3440    9.8410 O       345 WAT       0.0522
    346 WAT         1.1590   28.3440   17.5910 O       346 WAT       0.0593
    347 WAT         1.1590   28.3440   17.8410 O       347 WAT       0.1581
    348 WAT         1.1590   28.3440   18.0910 O       348 WAT       0.2678
    349 WAT         1.1590   28.3440   18.3410 O       349 WAT       0.2892
    350 WAT         1.1590   28.3440   18.5910 O       350 WAT       0.1981
    351 WAT         1.1590   28.3440   18.8410 O       351 WAT       0.0852
    352 WAT         1.1590   28.3440   25.0910 O       352 WAT       0.0854
    353 WAT         1.1590   28.3440   25.3410 O       353 WAT       0.1761
    354 WAT         1.1590   28.3440   25.5910 O       354 WAT       0.2249
    355 WAT         1.1590   28.3440   25.8410 O       355 WAT       0.1792
    356 WAT         1.1590   28.3440   26.0910 O       356 WAT       0.0893
    357 WAT         1.1590   28.5940    6.0910 O       357 WAT       0.0628
    358 WAT         1.1590   28.5940    6.3410 O       358 WAT       0.0849
    359 WAT         1.1590   28.5940    6.5910 O       359 WAT       0.0998
    360 WAT         1.1590   28.5940    6.8410 O       360 WAT       0.1036
    361 WAT         1.1590   28.5940    7.0910 O       361 WAT       0.0988
    362 WAT         1.1590   28.5940    7.3410 O       362 WAT       0.0908
    363 WAT         1.1590   28.5940    7.5910 O       363 WAT       0.0841
    364 WAT         1.1590   28.5940    7.8410 O       364 WAT       0.0803
    365 WAT         1.1590   28.5940    8.0910 O       365 WAT       0.0784
    366 WAT         1.1590   28.5940    8.3410 O       366 WAT       0.0776
    367 WAT         1.1590   28.5940    8.5910 O       367 WAT       0.0781
    368 WAT         1.1590   28.5940    8.8410 O       368 WAT       0.0800
    369 WAT         1.1590   28.5940    9.0910 O       369 WAT       0.0802
    370 WAT         1.1590   28.5940    9.3410 O       370 WAT       0.0727
    371 WAT         1.1590   28.5940    9.5910 O       371 WAT       0.0556
    372 WAT         1.1590   28.5940   17.8410 O       372 WAT       0.0827
    373 WAT         1.1590   28.5940   18.0910 O       373 WAT       0.1367
    374 WAT         1.1590   28.5940   18.3410 O       374 WAT       0.1434
    375 WAT         1.1590   28.5940   18.5910 O       375 WAT       0.0950
    376 WAT         1.1590   28.5940   25.0910 O       376 WAT       0.1444
    377 WAT         1.1590   28.5940   25.3410 O       377 WAT       0.2845
    378 WAT         1.1590   28.5940   25.5910 O       378 WAT       0.3477
    379 WAT         1.1590   28.5940   25.8410 O       379 WAT       0.2651
    380 WAT         1.1590   28.5940   26.0910 O       380 WAT       0.1268
    381 WAT         1.1590   28.8440    6.3410 O       381 WAT       0.0521
    382 WAT         1.1590   28.8440    6.5910 O       382 WAT       0.0666
    383 WAT         1.1590   28.8440    6.8410 O       383 WAT       0.0755
    384 WAT         1.1590   28.8440    7.0910 O       384 WAT       0.0781
    385 WAT         1.1590   28.8440    7.3410 O       385 WAT       0.0772
    386 WAT         1.1590   28.8440    7.5910 O       386 WAT       0.0757
    387 WAT         1.1590   28.8440    7.8410 O       387 WAT       0.0747
    388 WAT         1.1590   28.8440    8.0910 O       388 WAT       0.0734
    389 WAT         1.1590   28.8440    8.3410 O       389 WAT       0.0709
    390 WAT         1.1590   28.8440    8.5910 O       390 WAT       0.0672
    391 WAT         1.1590   28.8440    8.8410 O       391 WAT       0.0625
    392 WAT         1.1590   28.8440    9.0910 O       392 WAT       0.0562
    393 WAT         1.1590   28.8440    9.3410 O       393 WAT       0.0466
    394 WAT         1.1590   28.8440   15.8410 O       394 WAT       0.0548
    395 WAT         1.1590   28.8440   16.0910 O       395 WAT       0.0513
    396 WAT         1.1590   28.8440   18.3410 O       396 WAT       0.0456
    397 WAT         1.1590   28.8440   24.8410 O       397 WAT       0.0540
    398 WAT         1.1590   28.8440   25.0910 O       398 WAT       0.1667
    399 WAT         1.1590   28.8440   25.3410 O       399 WAT       0.3148
    400 WAT         1.1590   28.8440   25.5910 O       400 WAT       0.3681
    401 WAT         1.1590   28.8440   25.8410 O       401 WAT       0.2680
    402 WAT         1.1590   28.8440   26.0910 O       402 WAT       0.1223
    403 WAT         1.1590   29.0940    7.0910 O       403 WAT       0.0464
    404 WAT         1.1590   29.0940    7.3410 O       404 WAT       0.0488
    405 WAT         1.1590   29.0940    7.5910 O       405 WAT       0.0505
    406 WAT         1.1590   29.0940    7.8410 O       406 WAT       0.0514
    407 WAT         1.1590   29.0940    8.0910 O       407 WAT       0.0511
    408 WAT         1.1590   29.0940    8.3410 O       408 WAT       0.0490
    409 WAT         1.1590   29.0940    8.5910 O       409 WAT       0.0451
    410 WAT         1.1590   29.0940   15.5910 O       410 WAT       0.0464
    411 WAT         1.1590   29.0940   15.8410 O       411 WAT       0.0621
    412 WAT         1.1590   29.0940   16.0910 O       412 WAT       0.0631
    413 WAT         1.1590   29.0940   16.3410 O       413 WAT       0.0479
    414 WAT         1.1590   29.0940   25.0910 O       414 WAT       0.1320
    415 WAT         1.1590   29.0940   25.3410 O       415 WAT       0.2394
    416 WAT         1.1590   29.0940   25.5910 O       416 WAT       0.2682
    417 WAT         1.1590   29.0940   25.8410 O       417 WAT       0.1866
    418 WAT         1.1590   29.0940   26.0910 O       418 WAT       0.0812
    419 WAT         1.1590   29.3440   15.8410 O       419 WAT       0.0577
    420 WAT         1.1590   29.3440   16.0910 O       420 WAT       0.0628
    421 WAT         1.1590   29.3440   16.3410 O       421 WAT       0.0499
    422 WAT         1.1590   29.3440   25.0910 O       422 WAT       0.0709
    423 WAT         1.1590   29.3440   25.3410 O       423 WAT       0.1246
    424 WAT         1.1590   29.3440   25.5910 O       424 WAT       0.1342
    425 WAT         1.1590   29.3440   25.8410 O       425 WAT       0.0894
    426 WAT         1.1590   29.5940    9.8410 O       426 WAT       0.0452
    427 WAT         1.1590   29.5940   10.0910 O       427 WAT       0.0540
    428 WAT         1.1590   29.5940   10.3410 O       428 WAT       0.0507
    429 WAT         1.1590   29.5940   16.0910 O       429 WAT       0.0501
    430 WAT         1.1590   29.5940   25.5910 O       430 WAT       0.0451
    431 WAT         1.1590   29.8440    9.8410 O       431 WAT       0.0537
    432 WAT         1.1590   29.8440   10.0910 O       432 WAT       0.0615
    433 WAT         1.1590   29.8440   10.3410 O       433 WAT       0.0548
    434 WAT         1.1590   30.0940    7.8410 O       434 WAT       0.0527
    435 WAT         1.1590   30.0940    8.0910 O       435 WAT       0.0521
    436 WAT         1.1590   30.0940    9.8410 O       436 WAT       0.0529
    437 WAT         1.1590   30.0940   10.0910 O       437 WAT       0.0588
    438 WAT         1.1590   30.0940   10.3410 O       438 WAT       0.0507
    439 WAT         1.1590   30.0940   14.3410 O       439 WAT       0.0456
    440 WAT         1.1590   30.0940   14.5910 O       440 WAT       0.0566
    441 WAT         1.1590   30.0940   14.8410 O       441 WAT       0.0498
    442 WAT         1.1590   30.3440    7.5910 O       442 WAT       0.0618
    443 WAT         1.1590   30.3440    7.8410 O       443 WAT       0.0809
    444 WAT         1.1590   30.3440    8.0910 O       444 WAT       0.0835
    445 WAT         1.1590   30.3440    8.3410 O       445 WAT       0.0694
    446 WAT         1.1590   30.3440    8.5910 O       446 WAT       0.0493
    447 WAT         1.1590   30.3440   10.0910 O       447 WAT       0.0461
    448 WAT         1.1590   30.3440   14.3410 O       448 WAT       0.0664
    449 WAT         1.1590   30.3440   14.5910 O       449 WAT       0.0859
    450 WAT         1.1590   30.3440   14.8410 O       450 WAT       0.0786
    451 WAT         1.1590   30.3440   15.0910 O       451 WAT       0.0509
    452 WAT         1.1590   30.5940    7.5910 O       452 WAT       0.0725
    453 WAT         1.1590   30.5940    7.8410 O       453 WAT       0.1047
    454 WAT         1.1590   30.5940    8.0910 O       454 WAT       0.1152
    455 WAT         1.1590   30.5940    8.3410 O       455 WAT       0.0980
    456 WAT         1.1590   30.5940    8.5910 O       456 WAT       0.0674
    457 WAT         1.1590   30.5940   14.0910 O       457 WAT       0.0535
    458 WAT         1.1590   30.5940   14.3410 O       458 WAT       0.0951
    459 WAT         1.1590   30.5940   14.5910 O       459 WAT       0.1222
    460 WAT         1.1590   30.5940   14.8410 O       460 WAT       0.1121
    461 WAT         1.1590   30.5940   15.0910 O       461 WAT       0.0728
    462 WAT         1.1590   30.8440    3.3410 O       462 WAT       0.0458
    463 WAT         1.1590   30.8440    3.5910 O       463 WAT       0.0482
    464 WAT         1.1590   30.8440    7.5910 O       464 WAT       0.0714
    465 WAT         1.1590   30.8440    7.8410 O       465 WAT       0.1141
    466 WAT         1.1590   30.8440    8.0910 O       466 WAT       0.1353
    467 WAT         1.1590   30.8440    8.3410 O       467 WAT       0.1206
    468 WAT         1.1590   30.8440    8.5910 O       468 WAT       0.0834
    469 WAT         1.1590   30.8440    8.8410 O       469 WAT       0.0476
    470 WAT         1.1590   30.8440   14.0910 O       470 WAT       0.0737
    471 WAT         1.1590   30.8440   14.3410 O       471 WAT       0.1247
    472 WAT         1.1590   30.8440   14.5910 O       472 WAT       0.1544
    473 WAT         1.1590   30.8440   14.8410 O       473 WAT       0.1383
    474 WAT         1.1590   30.8440   15.0910 O       474 WAT       0.0886
    475 WAT         1.1590   31.0940    3.0910 O       475 WAT       0.0488
    476 WAT         1.1590   31.0940    3.3410 O       476 WAT       0.0552
    477 WAT         1.1590   31.0940    3.5910 O       477 WAT       0.0528
    478 WAT         1.1590   31.0940    7.5910 O       478 WAT       0.0593
    479 WAT         1.1590   31.0940    7.8410 O       479 WAT       0.1047
    480 WAT         1.1590   31.0940    8.0910 O       480 WAT       0.1345
    481 WAT         1.1590   31.0940    8.3410 O       481 WAT       0.1274
    482 WAT         1.1590   31.0940    8.5910 O       482 WAT       0.0910
    483 WAT         1.1590   31.0940    8.8410 O       483 WAT       0.0511
    484 WAT         1.1590   31.0940   14.0910 O       484 WAT       0.0892
    485 WAT         1.1590   31.0940   14.3410 O       485 WAT       0.1415
    486 WAT         1.1590   31.0940   14.5910 O       486 WAT       0.1665
    487 WAT         1.1590   31.0940   14.8410 O       487 WAT       0.1431
    488 WAT         1.1590   31.0940   15.0910 O       488 WAT       0.0891
    489 WAT         1.1590   31.3440    2.8410 O       489 WAT       0.0471
    490 WAT         1.1590   31.3440    3.0910 O       490 WAT       0.0546
    491 WAT         1.1590   31.3440    3.3410 O       491 WAT       0.0576
    492 WAT         1.1590   31.3440    3.5910 O       492 WAT       0.0498
    493 WAT         1.1590   31.3440    7.8410 O       493 WAT       0.0814
    494 WAT         1.1590   31.3440    8.0910 O       494 WAT       0.1135
    495 WAT         1.1590   31.3440    8.3410 O       495 WAT       0.1152
    496 WAT         1.1590   31.3440    8.5910 O       496 WAT       0.0864
    497 WAT         1.1590   31.3440    8.8410 O       497 WAT       0.0492
    498 WAT         1.1590   31.3440   13.8410 O       498 WAT       0.0477
    499 WAT         1.1590   31.3440   14.0910 O       499 WAT       0.0911
    500 WAT         1.1590   31.3440   14.3410 O       500 WAT       0.1347
    501 WAT         1.1590   31.3440   14.5910 O       501 WAT       0.1495
    502 WAT         1.1590   31.3440   14.8410 O       502 WAT       0.1223
    503 WAT         1.1590   31.3440   15.0910 O       503 WAT       0.0732
    504 WAT         1.1590   31.5940    2.8410 O       504 WAT       0.0463
    505 WAT         1.1590   31.5940    3.0910 O       505 WAT       0.0527
    506 WAT         1.1590   31.5940    3.3410 O       506 WAT       0.0521
    507 WAT         1.1590   31.5940    7.8410 O       507 WAT       0.0552
    508 WAT         1.1590   31.5940    8.0910 O       508 WAT       0.0839
    509 WAT         1.1590   31.5940    8.3410 O       509 WAT       0.0915
    510 WAT         1.1590   31.5940    8.5910 O       510 WAT       0.0727
    511 WAT         1.1590   31.5940   14.0910 O       511 WAT       0.0766
    512 WAT         1.1590   31.5940   14.3410 O       512 WAT       0.1052
    513 WAT         1.1590   31.5940   14.5910 O       513 WAT       0.1100
    514 WAT         1.1590   31.5940   14.8410 O       514 WAT       0.0855
    515 WAT         1.1590   31.5940   15.0910 O       515 WAT       0.0492
    516 WAT         1.1590   31.8440    8.0910 O       516 WAT       0.0579
    517 WAT         1.1590   31.8440    8.3410 O       517 WAT       0.0682
    518 WAT         1.1590   31.8440    8.5910 O       518 WAT       0.0580
    519 WAT         1.1590   31.8440   14.0910 O       519 WAT       0.0526
    520 WAT         1.1590   31.8440   14.3410 O       520 WAT       0.0669
    521 WAT         1.1590   31.8440   14.5910 O       521 WAT       0.0659
    522 WAT         1.1590   31.8440   14.8410 O       522 WAT       0.0489
    523 WAT         1.1590   32.0940    8.3410 O       523 WAT       0.0515
    524 WAT         1.1590   32.0940    8.5910 O       524 WAT       0.0474
    525 WAT         1.1590   33.0940    8.5910 O       525 WAT       0.0462
    526 WAT         1.1590   33.0940    8.8410 O       526 WAT       0.0578
    527 WAT         1.1590   33.0940    9.0910 O       527 WAT       0.0636
    528 WAT         1.1590   33.0940    9.3410 O       528 WAT       0.0606
    529 WAT         1.1590   33.0940    9.5910 O       529 WAT       0.0479
    530 WAT         1.1590   33.3440    8.5910 O       530 WAT       0.0574
    531 WAT         1.1590   33.3440    8.8410 O       531 WAT       0.0820
    532 WAT         1.1590   33.3440    9.0910 O       532 WAT       0.1006
    533 WAT         1.1590   33.3440    9.3410 O       533 WAT       0.1032
    534 WAT         1.1590   33.3440    9.5910 O       534 WAT       0.0865
    535 WAT         1.1590   33.3440    9.8410 O       535 WAT       0.0586
    536 WAT         1.1590   33.5940    8.5910 O       536 WAT       0.0716
    537 WAT         1.1590   33.5940    8.8410 O       537 WAT       0.1123
    538 WAT         1.1590   33.5940    9.0910 O       538 WAT       0.1462
    539 WAT         1.1590   33.5940    9.3410 O       539 WAT       0.1557
    540 WAT         1.1590   33.5940    9.5910 O       540 WAT       0.1341
    541 WAT         1.1590   33.5940    9.8410 O       541 WAT       0.0934
    542 WAT         1.1590   33.5940   10.0910 O       542 WAT       0.0535
    543 WAT         1.1590   33.8440    8.5910 O       543 WAT       0.0849
    544 WAT         1.1590   33.8440    8.8410 O       544 WAT       0.1399
    545 WAT         1.1590   33.8440    9.0910 O       545 WAT       0.1869
    546 WAT         1.1590   33.8440    9.3410 O       546 WAT       0.2012
    547 WAT         1.1590   33.8440    9.5910 O       547 WAT       0.1743
    548 WAT         1.1590   33.8440    9.8410 O       548 WAT       0.1223
    549 WAT         1.1590   33.8440   10.0910 O       549 WAT       0.0714
    550 WAT         1.1590   33.8440   28.3410 O       550 WAT       0.0599
    551 WAT         1.1590   33.8440   28.5910 O       551 WAT       0.0944
    552 WAT         1.1590   33.8440   28.8410 O       552 WAT       0.0961
    553 WAT         1.1590   33.8440   29.0910 O       553 WAT       0.0645
    554 WAT         1.1590   34.0940    8.5910 O       554 WAT       0.0921
    555 WAT         1.1590   34.0940    8.8410 O       555 WAT       0.1537
    556 WAT         1.1590   34.0940    9.0910 O       556 WAT       0.2048
    557 WAT         1.1590   34.0940    9.3410 O       557 WAT       0.2183
    558 WAT         1.1590   34.0940    9.5910 O       558 WAT       0.1870
    559 WAT         1.1590   34.0940    9.8410 O       559 WAT       0.1308
    560 WAT         1.1590   34.0940   10.0910 O       560 WAT       0.0777
    561 WAT         1.1590   34.0940   28.0910 O       561 WAT       0.0498
    562 WAT         1.1590   34.0940   28.3410 O       562 WAT       0.1257
    563 WAT         1.1590   34.0940   28.5910 O       563 WAT       0.2005
    564 WAT         1.1590   34.0940   28.8410 O       564 WAT       0.2086
    565 WAT         1.1590   34.0940   29.0910 O       565 WAT       0.1449
    566 WAT         1.1590   34.0940   29.3410 O       566 WAT       0.0685
    567 WAT         1.1590   34.3440    8.5910 O       567 WAT       0.0885
    568 WAT         1.1590   34.3440    8.8410 O       568 WAT       0.1452
    569 WAT         1.1590   34.3440    9.0910 O       569 WAT       0.1889
    570 WAT         1.1590   34.3440    9.3410 O       570 WAT       0.1961
    571 WAT         1.1590   34.3440    9.5910 O       571 WAT       0.1646
    572 WAT         1.1590   34.3440    9.8410 O       572 WAT       0.1144
    573 WAT         1.1590   34.3440   10.0910 O       573 WAT       0.0696
    574 WAT         1.1590   34.3440   28.0910 O       574 WAT       0.0674
    575 WAT         1.1590   34.3440   28.3410 O       575 WAT       0.1706
    576 WAT         1.1590   34.3440   28.5910 O       576 WAT       0.2757
    577 WAT         1.1590   34.3440   28.8410 O       577 WAT       0.2924
    578 WAT         1.1590   34.3440   29.0910 O       578 WAT       0.2081
    579 WAT         1.1590   34.3440   29.3410 O       579 WAT       0.1019
    580 WAT         1.1590   34.5940    8.5910 O       580 WAT       0.0744
    581 WAT         1.1590   34.5940    8.8410 O       581 WAT       0.1170
    582 WAT         1.1590   34.5940    9.0910 O       582 WAT       0.1458
    583 WAT         1.1590   34.5940    9.3410 O       583 WAT       0.1458
    584 WAT         1.1590   34.5940    9.5910 O       584 WAT       0.1193
    585 WAT         1.1590   34.5940    9.8410 O       585 WAT       0.0828
    586 WAT         1.1590   34.5940   10.0910 O       586 WAT       0.0523
    587 WAT         1.1590   34.5940   28.0910 O       587 WAT       0.0613
    588 WAT         1.1590   34.5940   28.3410 O       588 WAT       0.1563
    589 WAT         1.1590   34.5940   28.5910 O       589 WAT       0.2548
    590 WAT         1.1590   34.5940   28.8410 O       590 WAT       0.2739
    591 WAT         1.1590   34.5940   29.0910 O       591 WAT       0.1986
    592 WAT         1.1590   34.5940   29.3410 O       592 WAT       0.0996
    593 WAT         1.1590   34.8440    8.5910 O       593 WAT       0.0550
    594 WAT         1.1590   34.8440    8.8410 O       594 WAT       0.0804
    595 WAT         1.1590   34.8440    9.0910 O       595 WAT       0.0946
    596 WAT         1.1590   34.8440    9.3410 O       596 WAT       0.0905
    597 WAT         1.1590   34.8440    9.5910 O       597 WAT       0.0723
    598 WAT         1.1590   34.8440    9.8410 O       598 WAT       0.0505
    599 WAT         1.1590   34.8440   11.5910 O       599 WAT       0.0520
    600 WAT         1.1590   34.8440   11.8410 O       600 WAT       0.0561
    601 WAT         1.1590   34.8440   12.0910 O       601 WAT       0.0500
    602 WAT         1.1590   34.8440   28.3410 O       602 WAT       0.1020
    603 WAT         1.1590   34.8440   28.5910 O       603 WAT       0.1665
    604 WAT         1.1590   34.8440   28.8410 O       604 WAT       0.1798
    605 WAT         1.1590   34.8440   29.0910 O       605 WAT       0.1317
    606 WAT         1.1590   34.8440   29.3410 O       606 WAT       0.0669
    607 WAT         1.1590   35.0940    8.8410 O       607 WAT       0.0469
    608 WAT         1.1590   35.0940    9.0910 O       608 WAT       0.0514
    609 WAT         1.1590   35.0940    9.3410 O       609 WAT       0.0470
    610 WAT         1.1590   35.0940   11.5910 O       610 WAT       0.0479
    611 WAT         1.1590   35.0940   11.8410 O       611 WAT       0.0543
    612 WAT         1.1590   35.0940   12.0910 O       612 WAT       0.0505
    613 WAT         1.1590   35.0940   28.3410 O       613 WAT       0.0502
    614 WAT         1.1590   35.0940   28.5910 O       614 WAT       0.0816
    615 WAT         1.1590   35.0940   28.8410 O       615 WAT       0.0877
    616 WAT         1.1590   35.0940   29.0910 O       616 WAT       0.0640
    617 WAT         1.4090   17.5940   27.0910 O       617 WAT       0.0482
    618 WAT         1.4090   17.5940   27.3410 O       618 WAT       0.0493
    619 WAT         1.4090   17.8440   26.8410 O       619 WAT       0.0502
    620 WAT         1.4090   17.8440   27.0910 O       620 WAT       0.0539
    621 WAT         1.4090   17.8440   27.3410 O       621 WAT       0.0511
    622 WAT         1.4090   18.0940   26.5910 O       622 WAT       0.0505
    623 WAT         1.4090   18.0940   26.8410 O       623 WAT       0.0564
    624 WAT         1.4090   18.0940   27.0910 O       624 WAT       0.0565
    625 WAT         1.4090   18.0940   27.3410 O       625 WAT       0.0490
    626 WAT         1.4090   18.3440   26.3410 O       626 WAT       0.0469
    627 WAT         1.4090   18.3440   26.5910 O       627 WAT       0.0542
    628 WAT         1.4090   18.3440   26.8410 O       628 WAT       0.0581
    629 WAT         1.4090   18.3440   27.0910 O       629 WAT       0.0545
    630 WAT         1.4090   18.5940   26.3410 O       630 WAT       0.0460
    631 WAT         1.4090   18.5940   26.5910 O       631 WAT       0.0521
    632 WAT         1.4090   18.5940   26.8410 O       632 WAT       0.0537
    633 WAT         1.4090   18.5940   27.0910 O       633 WAT       0.0476
    634 WAT         1.4090   20.3440   19.5910 O       634 WAT       0.0467
    635 WAT         1.4090   20.3440   25.8410 O       635 WAT       0.0473
    636 WAT         1.4090   20.3440   26.0910 O       636 WAT       0.0480
    637 WAT         1.4090   20.5940   25.5910 O       637 WAT       0.0574
    638 WAT         1.4090   20.5940   25.8410 O       638 WAT       0.0685
    639 WAT         1.4090   20.5940   26.0910 O       639 WAT       0.0692
    640 WAT         1.4090   20.5940   26.3410 O       640 WAT       0.0604
    641 WAT         1.4090   20.5940   26.5910 O       641 WAT       0.0487
    642 WAT         1.4090   20.8440   16.5910 O       642 WAT       0.0490
    643 WAT         1.4090   20.8440   16.8410 O       643 WAT       0.0483
    644 WAT         1.4090   20.8440   25.3410 O       644 WAT       0.0571
    645 WAT         1.4090   20.8440   25.5910 O       645 WAT       0.0792
    646 WAT         1.4090   20.8440   25.8410 O       646 WAT       0.0925
    647 WAT         1.4090   20.8440   26.0910 O       647 WAT       0.0875
    648 WAT         1.4090   20.8440   26.3410 O       648 WAT       0.0688
    649 WAT         1.4090   20.8440   26.5910 O       649 WAT       0.0490
    650 WAT         1.4090   21.0940   15.8410 O       650 WAT       0.0526
    651 WAT         1.4090   21.0940   16.0910 O       651 WAT       0.0799
    652 WAT         1.4090   21.0940   16.3410 O       652 WAT       0.0982
    653 WAT         1.4090   21.0940   16.5910 O       653 WAT       0.0973
    654 WAT         1.4090   21.0940   16.8410 O       654 WAT       0.0788
    655 WAT         1.4090   21.0940   17.0910 O       655 WAT       0.0539
    656 WAT         1.4090   21.0940   25.0910 O       656 WAT       0.0469
    657 WAT         1.4090   21.0940   25.3410 O       657 WAT       0.0702
    658 WAT         1.4090   21.0940   25.5910 O       658 WAT       0.0927
    659 WAT         1.4090   21.0940   25.8410 O       659 WAT       0.1003
    660 WAT         1.4090   21.0940   26.0910 O       660 WAT       0.0860
    661 WAT         1.4090   21.0940   26.3410 O       661 WAT       0.0594
    662 WAT         1.4090   21.3440   15.5910 O       662 WAT       0.0772
    663 WAT         1.4090   21.3440   15.8410 O       663 WAT       0.1289
    664 WAT         1.4090   21.3440   16.0910 O       664 WAT       0.1730
    665 WAT         1.4090   21.3440   16.3410 O       665 WAT       0.1852
    666 WAT         1.4090   21.3440   16.5910 O       666 WAT       0.1571
    667 WAT         1.4090   21.3440   16.8410 O       667 WAT       0.1063
    668 WAT         1.4090   21.3440   17.0910 O       668 WAT       0.0588
    669 WAT         1.4090   21.3440   25.0910 O       669 WAT       0.0502
    670 WAT         1.4090   21.3440   25.3410 O       670 WAT       0.0698
    671 WAT         1.4090   21.3440   25.5910 O       671 WAT       0.0833
    672 WAT         1.4090   21.3440   25.8410 O       672 WAT       0.0810
    673 WAT         1.4090   21.3440   26.0910 O       673 WAT       0.0618
    674 WAT         1.4090   21.5940   15.3410 O       674 WAT       0.0855
    675 WAT         1.4090   21.5940   15.5910 O       675 WAT       0.1571
    676 WAT         1.4090   21.5940   15.8410 O       676 WAT       0.2342
    677 WAT         1.4090   21.5940   16.0910 O       677 WAT       0.2779
    678 WAT         1.4090   21.5940   16.3410 O       678 WAT       0.2601
    679 WAT         1.4090   21.5940   16.5910 O       679 WAT       0.1907
    680 WAT         1.4090   21.5940   16.8410 O       680 WAT       0.1095
    681 WAT         1.4090   21.5940   17.0910 O       681 WAT       0.0499
    682 WAT         1.4090   21.5940   25.3410 O       682 WAT       0.0530
    683 WAT         1.4090   21.5940   25.5910 O       683 WAT       0.0553
    684 WAT         1.4090   21.5940   25.8410 O       684 WAT       0.0471
    685 WAT         1.4090   21.8440   15.0910 O       685 WAT       0.0742
    686 WAT         1.4090   21.8440   15.3410 O       686 WAT       0.1433
    687 WAT         1.4090   21.8440   15.5910 O       687 WAT       0.2337
    688 WAT         1.4090   21.8440   15.8410 O       688 WAT       0.3078
    689 WAT         1.4090   21.8440   16.0910 O       689 WAT       0.3209
    690 WAT         1.4090   21.8440   16.3410 O       690 WAT       0.2621
    691 WAT         1.4090   21.8440   16.5910 O       691 WAT       0.1664
    692 WAT         1.4090   21.8440   16.8410 O       692 WAT       0.0817
    693 WAT         1.4090   22.0940   10.3410 O       693 WAT       0.0486
    694 WAT         1.4090   22.0940   10.5910 O       694 WAT       0.0538
    695 WAT         1.4090   22.0940   10.8410 O       695 WAT       0.0545
    696 WAT         1.4090   22.0940   11.0910 O       696 WAT       0.0495
    697 WAT         1.4090   22.0940   14.8410 O       697 WAT       0.0583
    698 WAT         1.4090   22.0940   15.0910 O       698 WAT       0.1058
    699 WAT         1.4090   22.0940   15.3410 O       699 WAT       0.1772
    700 WAT         1.4090   22.0940   15.5910 O       700 WAT       0.2515
    701 WAT         1.4090   22.0940   15.8410 O       701 WAT       0.2889
    702 WAT         1.4090   22.0940   16.0910 O       702 WAT       0.2624
    703 WAT         1.4090   22.0940   16.3410 O       703 WAT       0.1859
    704 WAT         1.4090   22.0940   16.5910 O       704 WAT       0.1018
    705 WAT         1.4090   22.3440   10.0910 O       705 WAT       0.0472
    706 WAT         1.4090   22.3440   10.3410 O       706 WAT       0.0543
    707 WAT         1.4090   22.3440   10.5910 O       707 WAT       0.0584
    708 WAT         1.4090   22.3440   10.8410 O       708 WAT       0.0578
    709 WAT         1.4090   22.3440   11.0910 O       709 WAT       0.0518
    710 WAT         1.4090   22.3440   13.3410 O       710 WAT       0.0502
    711 WAT         1.4090   22.3440   13.5910 O       711 WAT       0.0492
    712 WAT         1.4090   22.3440   14.5910 O       712 WAT       0.0485
    713 WAT         1.4090   22.3440   14.8410 O       713 WAT       0.0735
    714 WAT         1.4090   22.3440   15.0910 O       714 WAT       0.1139
    715 WAT         1.4090   22.3440   15.3410 O       715 WAT       0.1617
    716 WAT         1.4090   22.3440   15.5910 O       716 WAT       0.1957
    717 WAT         1.4090   22.3440   15.8410 O       717 WAT       0.1929
    718 WAT         1.4090   22.3440   16.0910 O       718 WAT       0.1508
    719 WAT         1.4090   22.3440   16.3410 O       719 WAT       0.0918
    720 WAT         1.4090   22.5940   10.0910 O       720 WAT       0.0488
    721 WAT         1.4090   22.5940   10.3410 O       721 WAT       0.0547
    722 WAT         1.4090   22.5940   10.5910 O       722 WAT       0.0560
    723 WAT         1.4090   22.5940   10.8410 O       723 WAT       0.0529
    724 WAT         1.4090   22.5940   11.0910 O       724 WAT       0.0458
    725 WAT         1.4090   22.5940   13.0910 O       725 WAT       0.0533
    726 WAT         1.4090   22.5940   13.3410 O       726 WAT       0.0609
    727 WAT         1.4090   22.5940   13.5910 O       727 WAT       0.0607
    728 WAT         1.4090   22.5940   13.8410 O       728 WAT       0.0547
    729 WAT         1.4090   22.5940   14.0910 O       729 WAT       0.0482
    730 WAT         1.4090   22.5940   14.3410 O       730 WAT       0.0468
    731 WAT         1.4090   22.5940   14.5910 O       731 WAT       0.0543
    732 WAT         1.4090   22.5940   14.8410 O       732 WAT       0.0713
    733 WAT         1.4090   22.5940   15.0910 O       733 WAT       0.0930
    734 WAT         1.4090   22.5940   15.3410 O       734 WAT       0.1097
    735 WAT         1.4090   22.5940   15.5910 O       735 WAT       0.1107
    736 WAT         1.4090   22.5940   15.8410 O       736 WAT       0.0917
    737 WAT         1.4090   22.5940   16.0910 O       737 WAT       0.0605
    738 WAT         1.4090   22.8440   10.3410 O       738 WAT       0.0485
    739 WAT         1.4090   22.8440   10.5910 O       739 WAT       0.0471
    740 WAT         1.4090   22.8440   13.0910 O       740 WAT       0.0541
    741 WAT         1.4090   22.8440   13.3410 O       741 WAT       0.0631
    742 WAT         1.4090   22.8440   13.5910 O       742 WAT       0.0643
    743 WAT         1.4090   22.8440   13.8410 O       743 WAT       0.0588
    744 WAT         1.4090   22.8440   14.0910 O       744 WAT       0.0514
    745 WAT         1.4090   22.8440   14.3410 O       745 WAT       0.0471
    746 WAT         1.4090   22.8440   14.5910 O       746 WAT       0.0482
    747 WAT         1.4090   22.8440   14.8410 O       747 WAT       0.0534
    748 WAT         1.4090   22.8440   15.0910 O       748 WAT       0.0578
    749 WAT         1.4090   22.8440   15.3410 O       749 WAT       0.0558
    750 WAT         1.4090   22.8440   15.5910 O       750 WAT       0.0459
    751 WAT         1.4090   23.0940   13.0910 O       751 WAT       0.0459
    752 WAT         1.4090   23.0940   13.3410 O       752 WAT       0.0552
    753 WAT         1.4090   23.0940   13.5910 O       753 WAT       0.0578
    754 WAT         1.4090   23.0940   13.8410 O       754 WAT       0.0537
    755 WAT         1.4090   23.0940   14.0910 O       755 WAT       0.0463
    756 WAT         1.4090   23.5940    8.3410 O       756 WAT       0.0460
    757 WAT         1.4090   23.5940    8.5910 O       757 WAT       0.0490
    758 WAT         1.4090   23.5940    8.8410 O       758 WAT       0.0468
    759 WAT         1.4090   23.8440    8.0910 O       759 WAT       0.0471
    760 WAT         1.4090   23.8440    8.3410 O       760 WAT       0.0558
    761 WAT         1.4090   23.8440    8.5910 O       761 WAT       0.0634
    762 WAT         1.4090   23.8440    8.8410 O       762 WAT       0.0656
    763 WAT         1.4090   23.8440    9.0910 O       763 WAT       0.0591
    764 WAT         1.4090   23.8440    9.3410 O       764 WAT       0.0452
    765 WAT         1.4090   24.0940    8.3410 O       765 WAT       0.0532
    766 WAT         1.4090   24.0940    8.5910 O       766 WAT       0.0652
    767 WAT         1.4090   24.0940    8.8410 O       767 WAT       0.0745
    768 WAT         1.4090   24.0940    9.0910 O       768 WAT       0.0746
    769 WAT         1.4090   24.0940    9.3410 O       769 WAT       0.0621
    770 WAT         1.4090   24.3440    6.0910 O       770 WAT       0.0461
    771 WAT         1.4090   24.3440    6.3410 O       771 WAT       0.0456
    772 WAT         1.4090   24.3440    8.5910 O       772 WAT       0.0522
    773 WAT         1.4090   24.3440    8.8410 O       773 WAT       0.0672
    774 WAT         1.4090   24.3440    9.0910 O       774 WAT       0.0760
    775 WAT         1.4090   24.3440    9.3410 O       775 WAT       0.0709
    776 WAT         1.4090   24.3440    9.5910 O       776 WAT       0.0527
    777 WAT         1.4090   24.3440   13.8410 O       777 WAT       0.0502
    778 WAT         1.4090   24.3440   14.0910 O       778 WAT       0.0581
    779 WAT         1.4090   24.3440   14.3410 O       779 WAT       0.0451
    780 WAT         1.4090   24.5940    5.8410 O       780 WAT       0.0545
    781 WAT         1.4090   24.5940    6.0910 O       781 WAT       0.0567
    782 WAT         1.4090   24.5940    6.3410 O       782 WAT       0.0499
    783 WAT         1.4090   24.5940    8.8410 O       783 WAT       0.0481
    784 WAT         1.4090   24.5940    9.0910 O       784 WAT       0.0627
    785 WAT         1.4090   24.5940    9.3410 O       785 WAT       0.0670
    786 WAT         1.4090   24.5940    9.5910 O       786 WAT       0.0566
    787 WAT         1.4090   24.5940   13.5910 O       787 WAT       0.0492
    788 WAT         1.4090   24.5940   13.8410 O       788 WAT       0.0823
    789 WAT         1.4090   24.5940   14.0910 O       789 WAT       0.0923
    790 WAT         1.4090   24.5940   14.3410 O       790 WAT       0.0685
    791 WAT         1.4090   24.8440    5.5910 O       791 WAT       0.0553
    792 WAT         1.4090   24.8440    5.8410 O       792 WAT       0.0651
    793 WAT         1.4090   24.8440    6.0910 O       793 WAT       0.0615
    794 WAT         1.4090   24.8440    6.3410 O       794 WAT       0.0479
    795 WAT         1.4090   24.8440    9.3410 O       795 WAT       0.0538
    796 WAT         1.4090   24.8440    9.5910 O       796 WAT       0.0525
    797 WAT         1.4090   24.8440   13.5910 O       797 WAT       0.0729
    798 WAT         1.4090   24.8440   13.8410 O       798 WAT       0.1159
    799 WAT         1.4090   24.8440   14.0910 O       799 WAT       0.1229
    800 WAT         1.4090   24.8440   14.3410 O       800 WAT       0.0860
    801 WAT         1.4090   25.0940    5.3410 O       801 WAT       0.0469
    802 WAT         1.4090   25.0940    5.5910 O       802 WAT       0.0641
    803 WAT         1.4090   25.0940    5.8410 O       803 WAT       0.0692
    804 WAT         1.4090   25.0940    6.0910 O       804 WAT       0.0590
    805 WAT         1.4090   25.0940   13.5910 O       805 WAT       0.0916
    806 WAT         1.4090   25.0940   13.8410 O       806 WAT       0.1365
    807 WAT         1.4090   25.0940   14.0910 O       807 WAT       0.1358
    808 WAT         1.4090   25.0940   14.3410 O       808 WAT       0.0894
    809 WAT         1.4090   25.3440    5.3410 O       809 WAT       0.0539
    810 WAT         1.4090   25.3440    5.5910 O       810 WAT       0.0683
    811 WAT         1.4090   25.3440    5.8410 O       811 WAT       0.0672
    812 WAT         1.4090   25.3440    6.0910 O       812 WAT       0.0514
    813 WAT         1.4090   25.3440   13.3410 O       813 WAT       0.0469
    814 WAT         1.4090   25.3440   13.5910 O       814 WAT       0.0976
    815 WAT         1.4090   25.3440   13.8410 O       815 WAT       0.1359
    816 WAT         1.4090   25.3440   14.0910 O       816 WAT       0.1269
    817 WAT         1.4090   25.3440   14.3410 O       817 WAT       0.0788
    818 WAT         1.4090   25.5940    5.3410 O       818 WAT       0.0577
    819 WAT         1.4090   25.5940    5.5910 O       819 WAT       0.0681
    820 WAT         1.4090   25.5940    5.8410 O       820 WAT       0.0615
    821 WAT         1.4090   25.5940   13.3410 O       821 WAT       0.0462
    822 WAT         1.4090   25.5940   13.5910 O       822 WAT       0.0897
    823 WAT         1.4090   25.5940   13.8410 O       823 WAT       0.1169
    824 WAT         1.4090   25.5940   14.0910 O       824 WAT       0.1028
    825 WAT         1.4090   25.5940   14.3410 O       825 WAT       0.0605
    826 WAT         1.4090   25.8440    5.3410 O       826 WAT       0.0577
    827 WAT         1.4090   25.8440    5.5910 O       827 WAT       0.0646
    828 WAT         1.4090   25.8440    5.8410 O       828 WAT       0.0546
    829 WAT         1.4090   25.8440   13.5910 O       829 WAT       0.0723
    830 WAT         1.4090   25.8440   13.8410 O       830 WAT       0.0889
    831 WAT         1.4090   25.8440   14.0910 O       831 WAT       0.0741
    832 WAT         1.4090   26.0940    5.3410 O       832 WAT       0.0546
    833 WAT         1.4090   26.0940    5.5910 O       833 WAT       0.0592
    834 WAT         1.4090   26.0940    5.8410 O       834 WAT       0.0482
    835 WAT         1.4090   26.0940   13.5910 O       835 WAT       0.0515
    836 WAT         1.4090   26.0940   13.8410 O       836 WAT       0.0607
    837 WAT         1.4090   26.0940   14.0910 O       837 WAT       0.0487
    838 WAT         1.4090   26.3440    5.3410 O       838 WAT       0.0506
    839 WAT         1.4090   26.3440    5.5910 O       839 WAT       0.0543
    840 WAT         1.4090   26.5940    5.3410 O       840 WAT       0.0485
    841 WAT         1.4090   26.5940    5.5910 O       841 WAT       0.0525
    842 WAT         1.4090   26.8440    5.3410 O       842 WAT       0.0499
    843 WAT         1.4090   26.8440    5.5910 O       843 WAT       0.0561
    844 WAT         1.4090   26.8440    5.8410 O       844 WAT       0.0477
    845 WAT         1.4090   27.0940    5.3410 O       845 WAT       0.0543
    846 WAT         1.4090   27.0940    5.5910 O       846 WAT       0.0651
    847 WAT         1.4090   27.0940    5.8410 O       847 WAT       0.0600
    848 WAT         1.4090   27.3440    5.3410 O       848 WAT       0.0589
    849 WAT         1.4090   27.3440    5.5910 O       849 WAT       0.0768
    850 WAT         1.4090   27.3440    5.8410 O       850 WAT       0.0785
    851 WAT         1.4090   27.3440    6.0910 O       851 WAT       0.0622
    852 WAT         1.4090   27.3440    9.5910 O       852 WAT       0.0477
    853 WAT         1.4090   27.3440    9.8410 O       853 WAT       0.0497
    854 WAT         1.4090   27.3440   18.0910 O       854 WAT       0.0710
    855 WAT         1.4090   27.3440   18.3410 O       855 WAT       0.0874
    856 WAT         1.4090   27.3440   18.5910 O       856 WAT       0.0675
    857 WAT         1.4090   27.5940    5.3410 O       857 WAT       0.0601
    858 WAT         1.4090   27.5940    5.5910 O       858 WAT       0.0858
    859 WAT         1.4090   27.5940    5.8410 O       859 WAT       0.0981
    860 WAT         1.4090   27.5940    6.0910 O       860 WAT       0.0887
    861 WAT         1.4090   27.5940    6.3410 O       861 WAT       0.0640
    862 WAT         1.4090   27.5940    9.3410 O       862 WAT       0.0504
    863 WAT         1.4090   27.5940    9.5910 O       863 WAT       0.0616
    864 WAT         1.4090   27.5940    9.8410 O       864 WAT       0.0554
    865 WAT         1.4090   27.5940   17.8410 O       865 WAT       0.1113
    866 WAT         1.4090   27.5940   18.0910 O       866 WAT       0.2101
    867 WAT         1.4090   27.5940   18.3410 O       867 WAT       0.2521
    868 WAT         1.4090   27.5940   18.5910 O       868 WAT       0.1918
    869 WAT         1.4090   27.5940   18.8410 O       869 WAT       0.0916
    870 WAT         1.4090   27.8440    5.3410 O       870 WAT       0.0552
    871 WAT         1.4090   27.8440    5.5910 O       871 WAT       0.0853
    872 WAT         1.4090   27.8440    5.8410 O       872 WAT       0.1092
    873 WAT         1.4090   27.8440    6.0910 O       873 WAT       0.1130
    874 WAT         1.4090   27.8440    6.3410 O       874 WAT       0.0954
    875 WAT         1.4090   27.8440    6.5910 O       875 WAT       0.0676
    876 WAT         1.4090   27.8440    9.0910 O       876 WAT       0.0515
    877 WAT         1.4090   27.8440    9.3410 O       877 WAT       0.0714
    878 WAT         1.4090   27.8440    9.5910 O       878 WAT       0.0760
    879 WAT         1.4090   27.8440    9.8410 O       879 WAT       0.0598
    880 WAT         1.4090   27.8440   17.5910 O       880 WAT       0.0740
    881 WAT         1.4090   27.8440   17.8410 O       881 WAT       0.2153
    882 WAT         1.4090   27.8440   18.0910 O       882 WAT       0.3980
    883 WAT         1.4090   27.8440   18.3410 O       883 WAT       0.4683
    884 WAT         1.4090   27.8440   18.5910 O       884 WAT       0.3491
    885 WAT         1.4090   27.8440   18.8410 O       885 WAT       0.1642
    886 WAT         1.4090   27.8440   19.0910 O       886 WAT       0.0472
    887 WAT         1.4090   28.0940    5.5910 O       887 WAT       0.0727
    888 WAT         1.4090   28.0940    5.8410 O       888 WAT       0.1033
    889 WAT         1.4090   28.0940    6.0910 O       889 WAT       0.1225
    890 WAT         1.4090   28.0940    6.3410 O       890 WAT       0.1208
    891 WAT         1.4090   28.0940    6.5910 O       891 WAT       0.1017
    892 WAT         1.4090   28.0940    6.8410 O       892 WAT       0.0763
    893 WAT         1.4090   28.0940    7.0910 O       893 WAT       0.0539
    894 WAT         1.4090   28.0940    8.8410 O       894 WAT       0.0516
    895 WAT         1.4090   28.0940    9.0910 O       895 WAT       0.0733
    896 WAT         1.4090   28.0940    9.3410 O       896 WAT       0.0885
    897 WAT         1.4090   28.0940    9.5910 O       897 WAT       0.0838
    898 WAT         1.4090   28.0940    9.8410 O       898 WAT       0.0592
    899 WAT         1.4090   28.0940   17.5910 O       899 WAT       0.0948
    900 WAT         1.4090   28.0940   17.8410 O       900 WAT       0.2704
    901 WAT         1.4090   28.0940   18.0910 O       901 WAT       0.4907
    902 WAT         1.4090   28.0940   18.3410 O       902 WAT       0.5663
    903 WAT         1.4090   28.0940   18.5910 O       903 WAT       0.4138
    904 WAT         1.4090   28.0940   18.8410 O       904 WAT       0.1908
    905 WAT         1.4090   28.0940   19.0910 O       905 WAT       0.0543
    906 WAT         1.4090   28.0940   25.5910 O       906 WAT       0.0521
    907 WAT         1.4090   28.3440    5.5910 O       907 WAT       0.0529
    908 WAT         1.4090   28.3440    5.8410 O       908 WAT       0.0815
    909 WAT         1.4090   28.3440    6.0910 O       909 WAT       0.1097
    910 WAT         1.4090   28.3440    6.3410 O       910 WAT       0.1254
    911 WAT         1.4090   28.3440    6.5910 O       911 WAT       0.1232
    912 WAT         1.4090   28.3440    6.8410 O       912 WAT       0.1076
    913 WAT         1.4090   28.3440    7.0910 O       913 WAT       0.0874
    914 WAT         1.4090   28.3440    7.3410 O       914 WAT       0.0698
    915 WAT         1.4090   28.3440    7.5910 O       915 WAT       0.0577
    916 WAT         1.4090   28.3440    7.8410 O       916 WAT       0.0515
    917 WAT         1.4090   28.3440    8.0910 O       917 WAT       0.0497
    918 WAT         1.4090   28.3440    8.3410 O       918 WAT       0.0515
    919 WAT         1.4090   28.3440    8.5910 O       919 WAT       0.0585
    920 WAT         1.4090   28.3440    8.8410 O       920 WAT       0.0718
    921 WAT         1.4090   28.3440    9.0910 O       921 WAT       0.0868
    922 WAT         1.4090   28.3440    9.3410 O       922 WAT       0.0920
    923 WAT         1.4090   28.3440    9.5910 O       923 WAT       0.0783
    924 WAT         1.4090   28.3440    9.8410 O       924 WAT       0.0509
    925 WAT         1.4090   28.3440   17.5910 O       925 WAT       0.0789
    926 WAT         1.4090   28.3440   17.8410 O       926 WAT       0.2217
    927 WAT         1.4090   28.3440   18.0910 O       927 WAT       0.3949
    928 WAT         1.4090   28.3440   18.3410 O       928 WAT       0.4469
    929 WAT         1.4090   28.3440   18.5910 O       929 WAT       0.3201
    930 WAT         1.4090   28.3440   18.8410 O       930 WAT       0.1445
    931 WAT         1.4090   28.3440   25.3410 O       931 WAT       0.0871
    932 WAT         1.4090   28.3440   25.5910 O       932 WAT       0.1133
    933 WAT         1.4090   28.3440   25.8410 O       933 WAT       0.0915
    934 WAT         1.4090   28.3440   26.0910 O       934 WAT       0.0459
    935 WAT         1.4090   28.5940    5.8410 O       935 WAT       0.0540
    936 WAT         1.4090   28.5940    6.0910 O       936 WAT       0.0801
    937 WAT         1.4090   28.5940    6.3410 O       937 WAT       0.1038
    938 WAT         1.4090   28.5940    6.5910 O       938 WAT       0.1164
    939 WAT         1.4090   28.5940    6.8410 O       939 WAT       0.1151
    940 WAT         1.4090   28.5940    7.0910 O       940 WAT       0.1046
    941 WAT         1.4090   28.5940    7.3410 O       941 WAT       0.0916
    942 WAT         1.4090   28.5940    7.5910 O       942 WAT       0.0813
    943 WAT         1.4090   28.5940    7.8410 O       943 WAT       0.0756
    944 WAT         1.4090   28.5940    8.0910 O       944 WAT       0.0732
    945 WAT         1.4090   28.5940    8.3410 O       945 WAT       0.0728
    946 WAT         1.4090   28.5940    8.5910 O       946 WAT       0.0750
    947 WAT         1.4090   28.5940    8.8410 O       947 WAT       0.0801
    948 WAT         1.4090   28.5940    9.0910 O       948 WAT       0.0842
    949 WAT         1.4090   28.5940    9.3410 O       949 WAT       0.0789
    950 WAT         1.4090   28.5940    9.5910 O       950 WAT       0.0609
    951 WAT         1.4090   28.5940   17.8410 O       951 WAT       0.1188
    952 WAT         1.4090   28.5940   18.0910 O       952 WAT       0.2077
    953 WAT         1.4090   28.5940   18.3410 O       953 WAT       0.2302
    954 WAT         1.4090   28.5940   18.5910 O       954 WAT       0.1613
    955 WAT         1.4090   28.5940   18.8410 O       955 WAT       0.0706
    956 WAT         1.4090   28.5940   25.0910 O       956 WAT       0.0663
    957 WAT         1.4090   28.5940   25.3410 O       957 WAT       0.1331
    958 WAT         1.4090   28.5940   25.5910 O       958 WAT       0.1650
    959 WAT         1.4090   28.5940   25.8410 O       959 WAT       0.1275
    960 WAT         1.4090   28.5940   26.0910 O       960 WAT       0.0613
    961 WAT         1.4090   28.8440    6.0910 O       961 WAT       0.0486
    962 WAT         1.4090   28.8440    6.3410 O       962 WAT       0.0682
    963 WAT         1.4090   28.8440    6.5910 O       963 WAT       0.0845
    964 WAT         1.4090   28.8440    6.8410 O       964 WAT       0.0923
    965 WAT         1.4090   28.8440    7.0910 O       965 WAT       0.0918
    966 WAT         1.4090   28.8440    7.3410 O       966 WAT       0.0869
    967 WAT         1.4090   28.8440    7.5910 O       967 WAT       0.0821
    968 WAT         1.4090   28.8440    7.8410 O       968 WAT       0.0792
    969 WAT         1.4090   28.8440    8.0910 O       969 WAT       0.0773
    970 WAT         1.4090   28.8440    8.3410 O       970 WAT       0.0752
    971 WAT         1.4090   28.8440    8.5910 O       971 WAT       0.0729
    972 WAT         1.4090   28.8440    8.8410 O       972 WAT       0.0706
    973 WAT         1.4090   28.8440    9.0910 O       973 WAT       0.0662
    974 WAT         1.4090   28.8440    9.3410 O       974 WAT       0.0562
    975 WAT         1.4090   28.8440   18.0910 O       975 WAT       0.0704
    976 WAT         1.4090   28.8440   18.3410 O       976 WAT       0.0763
    977 WAT         1.4090   28.8440   18.5910 O       977 WAT       0.0515
    978 WAT         1.4090   28.8440   25.0910 O       978 WAT       0.0726
    979 WAT         1.4090   28.8440   25.3410 O       979 WAT       0.1389
    980 WAT         1.4090   28.8440   25.5910 O       980 WAT       0.1643
    981 WAT         1.4090   28.8440   25.8410 O       981 WAT       0.1210
    982 WAT         1.4090   28.8440   26.0910 O       982 WAT       0.0555
    983 WAT         1.4090   29.0940    6.5910 O       983 WAT       0.0480
    984 WAT         1.4090   29.0940    6.8410 O       984 WAT       0.0562
    985 WAT         1.4090   29.0940    7.0910 O       985 WAT       0.0602
    986 WAT         1.4090   29.0940    7.3410 O       986 WAT       0.0610
    987 WAT         1.4090   29.0940    7.5910 O       987 WAT       0.0609
    988 WAT         1.4090   29.0940    7.8410 O       988 WAT       0.0608
    989 WAT         1.4090   29.0940    8.0910 O       989 WAT       0.0602
    990 WAT         1.4090   29.0940    8.3410 O       990 WAT       0.0581
    991 WAT         1.4090   29.0940    8.5910 O       991 WAT       0.0545
    992 WAT         1.4090   29.0940    8.8410 O       992 WAT       0.0496
    993 WAT         1.4090   29.0940   25.0910 O       993 WAT       0.0543
    994 WAT         1.4090   29.0940   25.3410 O       994 WAT       0.0999
    995 WAT         1.4090   29.0940   25.5910 O       995 WAT       0.1129
    996 WAT         1.4090   29.0940   25.8410 O       996 WAT       0.0793
    997 WAT         1.4090   29.3440   25.3410 O       997 WAT       0.0490
    998 WAT         1.4090   29.3440   25.5910 O       998 WAT       0.0532
    999 WAT         1.4090   30.0940    7.5910 O       999 WAT       0.0464
   1000 WAT         1.4090   30.0940    7.8410 O      1000 WAT       0.0562
   1001 WAT         1.4090   30.0940    8.0910 O      1001 WAT       0.0558
   1002 WAT         1.4090   30.0940    8.3410 O      1002 WAT       0.0472
   1003 WAT         1.4090   30.0940   14.5910 O      1003 WAT       0.0573
   1004 WAT         1.4090   30.0940   14.8410 O      1004 WAT       0.0571
   1005 WAT         1.4090   30.3440    7.5910 O      1005 WAT       0.0593
   1006 WAT         1.4090   30.3440    7.8410 O      1006 WAT       0.0781
   1007 WAT         1.4090   30.3440    8.0910 O      1007 WAT       0.0809
   1008 WAT         1.4090   30.3440    8.3410 O      1008 WAT       0.0673
   1009 WAT         1.4090   30.3440    8.5910 O      1009 WAT       0.0476
   1010 WAT         1.4090   30.3440   14.3410 O      1010 WAT       0.0643
   1011 WAT         1.4090   30.3440   14.5910 O      1011 WAT       0.0962
   1012 WAT         1.4090   30.3440   14.8410 O      1012 WAT       0.0992
   1013 WAT         1.4090   30.3440   15.0910 O      1013 WAT       0.0703
   1014 WAT         1.4090   30.5940    3.5910 O      1014 WAT       0.0460
   1015 WAT         1.4090   30.5940    7.5910 O      1015 WAT       0.0620
   1016 WAT         1.4090   30.5940    7.8410 O      1016 WAT       0.0901
   1017 WAT         1.4090   30.5940    8.0910 O      1017 WAT       0.0994
   1018 WAT         1.4090   30.5940    8.3410 O      1018 WAT       0.0846
   1019 WAT         1.4090   30.5940    8.5910 O      1019 WAT       0.0579
   1020 WAT         1.4090   30.5940   14.0910 O      1020 WAT       0.0464
   1021 WAT         1.4090   30.5940   14.3410 O      1021 WAT       0.0983
   1022 WAT         1.4090   30.5940   14.5910 O      1022 WAT       0.1460
   1023 WAT         1.4090   30.5940   14.8410 O      1023 WAT       0.1507
   1024 WAT         1.4090   30.5940   15.0910 O      1024 WAT       0.1073
   1025 WAT         1.4090   30.5940   15.3410 O      1025 WAT       0.0525
   1026 WAT         1.4090   30.8440    3.3410 O      1026 WAT       0.0530
   1027 WAT         1.4090   30.8440    3.5910 O      1027 WAT       0.0540
   1028 WAT         1.4090   30.8440    7.5910 O      1028 WAT       0.0538
   1029 WAT         1.4090   30.8440    7.8410 O      1029 WAT       0.0865
   1030 WAT         1.4090   30.8440    8.0910 O      1030 WAT       0.1030
   1031 WAT         1.4090   30.8440    8.3410 O      1031 WAT       0.0919
   1032 WAT         1.4090   30.8440    8.5910 O      1032 WAT       0.0633
   1033 WAT         1.4090   30.8440   14.0910 O      1033 WAT       0.0661
   1034 WAT         1.4090   30.8440   14.3410 O      1034 WAT       0.1331
   1035 WAT         1.4090   30.8440   14.5910 O      1035 WAT       0.1910
   1036 WAT         1.4090   30.8440   14.8410 O      1036 WAT       0.1924
   1037 WAT         1.4090   30.8440   15.0910 O      1037 WAT       0.1350
   1038 WAT         1.4090   30.8440   15.3410 O      1038 WAT       0.0655
   1039 WAT         1.4090   31.0940    3.0910 O      1039 WAT       0.0524
   1040 WAT         1.4090   31.0940    3.3410 O      1040 WAT       0.0585
   1041 WAT         1.4090   31.0940    3.5910 O      1041 WAT       0.0534
   1042 WAT         1.4090   31.0940    7.8410 O      1042 WAT       0.0697
   1043 WAT         1.4090   31.0940    8.0910 O      1043 WAT       0.0902
   1044 WAT         1.4090   31.0940    8.3410 O      1044 WAT       0.0858
   1045 WAT         1.4090   31.0940    8.5910 O      1045 WAT       0.0612
   1046 WAT         1.4090   31.0940   14.0910 O      1046 WAT       0.0815
   1047 WAT         1.4090   31.0940   14.3410 O      1047 WAT       0.1535
   1048 WAT         1.4090   31.0940   14.5910 O      1048 WAT       0.2086
   1049 WAT         1.4090   31.0940   14.8410 O      1049 WAT       0.2015
   1050 WAT         1.4090   31.0940   15.0910 O      1050 WAT       0.1371
   1051 WAT         1.4090   31.0940   15.3410 O      1051 WAT       0.0652
   1052 WAT         1.4090   31.3440    2.8410 O      1052 WAT       0.0469
   1053 WAT         1.4090   31.3440    3.0910 O      1053 WAT       0.0535
   1054 WAT         1.4090   31.3440    3.3410 O      1054 WAT       0.0545
   1055 WAT         1.4090   31.3440    7.8410 O      1055 WAT       0.0476
   1056 WAT         1.4090   31.3440    8.0910 O      1056 WAT       0.0674
   1057 WAT         1.4090   31.3440    8.3410 O      1057 WAT       0.0690
   1058 WAT         1.4090   31.3440    8.5910 O      1058 WAT       0.0518
   1059 WAT         1.4090   31.3440   14.0910 O      1059 WAT       0.0840
   1060 WAT         1.4090   31.3440   14.3410 O      1060 WAT       0.1466
   1061 WAT         1.4090   31.3440   14.5910 O      1061 WAT       0.1869
   1062 WAT         1.4090   31.3440   14.8410 O      1062 WAT       0.1711
   1063 WAT         1.4090   31.3440   15.0910 O      1063 WAT       0.1116
   1064 WAT         1.4090   31.3440   15.3410 O      1064 WAT       0.0514
   1065 WAT         1.4090   31.5940    3.0910 O      1065 WAT       0.0463
   1066 WAT         1.4090   31.5940    8.3410 O      1066 WAT       0.0488
   1067 WAT         1.4090   31.5940   14.0910 O      1067 WAT       0.0705
   1068 WAT         1.4090   31.5940   14.3410 O      1068 WAT       0.1135
   1069 WAT         1.4090   31.5940   14.5910 O      1069 WAT       0.1353
   1070 WAT         1.4090   31.5940   14.8410 O      1070 WAT       0.1168
   1071 WAT         1.4090   31.5940   15.0910 O      1071 WAT       0.0726
   1072 WAT         1.4090   31.8440   14.0910 O      1072 WAT       0.0476
   1073 WAT         1.4090   31.8440   14.3410 O      1073 WAT       0.0704
   1074 WAT         1.4090   31.8440   14.5910 O      1074 WAT       0.0782
   1075 WAT         1.4090   31.8440   14.8410 O      1075 WAT       0.0637
   1076 WAT         1.4090   33.3440    8.8410 O      1076 WAT       0.0568
   1077 WAT         1.4090   33.3440    9.0910 O      1077 WAT       0.0768
   1078 WAT         1.4090   33.3440    9.3410 O      1078 WAT       0.0850
   1079 WAT         1.4090   33.3440    9.5910 O      1079 WAT       0.0752
   1080 WAT         1.4090   33.3440    9.8410 O      1080 WAT       0.0524
   1081 WAT         1.4090   33.5940    8.5910 O      1081 WAT       0.0528
   1082 WAT         1.4090   33.5940    8.8410 O      1082 WAT       0.0921
   1083 WAT         1.4090   33.5940    9.0910 O      1083 WAT       0.1307
   1084 WAT         1.4090   33.5940    9.3410 O      1084 WAT       0.1489
   1085 WAT         1.4090   33.5940    9.5910 O      1085 WAT       0.1345
   1086 WAT         1.4090   33.5940    9.8410 O      1086 WAT       0.0956
   1087 WAT         1.4090   33.5940   10.0910 O      1087 WAT       0.0539
   1088 WAT         1.4090   33.5940   28.5910 O      1088 WAT       0.0462
   1089 WAT         1.4090   33.5940   28.8410 O      1089 WAT       0.0466
   1090 WAT         1.4090   33.8440    8.5910 O      1090 WAT       0.0746
   1091 WAT         1.4090   33.8440    8.8410 O      1091 WAT       0.1346
   1092 WAT         1.4090   33.8440    9.0910 O      1092 WAT       0.1935
   1093 WAT         1.4090   33.8440    9.3410 O      1093 WAT       0.2204
   1094 WAT         1.4090   33.8440    9.5910 O      1094 WAT       0.1981
   1095 WAT         1.4090   33.8440    9.8410 O      1095 WAT       0.1406
   1096 WAT         1.4090   33.8440   10.0910 O      1096 WAT       0.0800
   1097 WAT         1.4090   33.8440   28.3410 O      1097 WAT       0.0980
   1098 WAT         1.4090   33.8440   28.5910 O      1098 WAT       0.1563
   1099 WAT         1.4090   33.8440   28.8410 O      1099 WAT       0.1609
   1100 WAT         1.4090   33.8440   29.0910 O      1100 WAT       0.1092
   1101 WAT         1.4090   33.8440   29.3410 O      1101 WAT       0.0494
   1102 WAT         1.4090   34.0940    8.5910 O      1102 WAT       0.0949
   1103 WAT         1.4090   34.0940    8.8410 O      1103 WAT       0.1709
   1104 WAT         1.4090   34.0940    9.0910 O      1104 WAT       0.2420
   1105 WAT         1.4090   34.0940    9.3410 O      1105 WAT       0.2698
   1106 WAT         1.4090   34.0940    9.5910 O      1106 WAT       0.2372
   1107 WAT         1.4090   34.0940    9.8410 O      1107 WAT       0.1658
   1108 WAT         1.4090   34.0940   10.0910 O      1108 WAT       0.0946
   1109 WAT         1.4090   34.0940   10.3410 O      1109 WAT       0.0471
   1110 WAT         1.4090   34.0940   28.0910 O      1110 WAT       0.0804
   1111 WAT         1.4090   34.0940   28.3410 O      1111 WAT       0.2042
   1112 WAT         1.4090   34.0940   28.5910 O      1112 WAT       0.3298
   1113 WAT         1.4090   34.0940   28.8410 O      1113 WAT       0.3465
   1114 WAT         1.4090   34.0940   29.0910 O      1114 WAT       0.2418
   1115 WAT         1.4090   34.0940   29.3410 O      1115 WAT       0.1147
   1116 WAT         1.4090   34.3440    8.3410 O      1116 WAT       0.0462
   1117 WAT         1.4090   34.3440    8.5910 O      1117 WAT       0.1048
   1118 WAT         1.4090   34.3440    8.8410 O      1118 WAT       0.1836
   1119 WAT         1.4090   34.3440    9.0910 O      1119 WAT       0.2509
   1120 WAT         1.4090   34.3440    9.3410 O      1120 WAT       0.2693
   1121 WAT         1.4090   34.3440    9.5910 O      1121 WAT       0.2290
   1122 WAT         1.4090   34.3440    9.8410 O      1122 WAT       0.1568
   1123 WAT         1.4090   34.3440   10.0910 O      1123 WAT       0.0898
   1124 WAT         1.4090   34.3440   10.3410 O      1124 WAT       0.0468
   1125 WAT         1.4090   34.3440   28.0910 O      1125 WAT       0.1084
   1126 WAT         1.4090   34.3440   28.3410 O      1126 WAT       0.2764
   1127 WAT         1.4090   34.3440   28.5910 O      1127 WAT       0.4518
   1128 WAT         1.4090   34.3440   28.8410 O      1128 WAT       0.4831
   1129 WAT         1.4090   34.3440   29.0910 O      1129 WAT       0.3449
   1130 WAT         1.4090   34.3440   29.3410 O      1130 WAT       0.1687
   1131 WAT         1.4090   34.3440   29.5910 O      1131 WAT       0.0571
   1132 WAT         1.4090   34.5940    8.3410 O      1132 WAT       0.0456
   1133 WAT         1.4090   34.5940    8.5910 O      1133 WAT       0.0988
   1134 WAT         1.4090   34.5940    8.8410 O      1134 WAT       0.1647
   1135 WAT         1.4090   34.5940    9.0910 O      1135 WAT       0.2138
   1136 WAT         1.4090   34.5940    9.3410 O      1136 WAT       0.2184
   1137 WAT         1.4090   34.5940    9.5910 O      1137 WAT       0.1784
   1138 WAT         1.4090   34.5940    9.8410 O      1138 WAT       0.1194
   1139 WAT         1.4090   34.5940   10.0910 O      1139 WAT       0.0693
   1140 WAT         1.4090   34.5940   28.0910 O      1140 WAT       0.0992
   1141 WAT         1.4090   34.5940   28.3410 O      1141 WAT       0.2534
   1142 WAT         1.4090   34.5940   28.5910 O      1142 WAT       0.4168
   1143 WAT         1.4090   34.5940   28.8410 O      1143 WAT       0.4509
   1144 WAT         1.4090   34.5940   29.0910 O      1144 WAT       0.3280
   1145 WAT         1.4090   34.5940   29.3410 O      1145 WAT       0.1646
   1146 WAT         1.4090   34.5940   29.5910 O      1146 WAT       0.0575
   1147 WAT         1.4090   34.8440    8.5910 O      1147 WAT       0.0788
   1148 WAT         1.4090   34.8440    8.8410 O      1148 WAT       0.1223
   1149 WAT         1.4090   34.8440    9.0910 O      1149 WAT       0.1490
   1150 WAT         1.4090   34.8440    9.3410 O      1150 WAT       0.1440
   1151 WAT         1.4090   34.8440    9.5910 O      1151 WAT       0.1127
   1152 WAT         1.4090   34.8440    9.8410 O      1152 WAT       0.0741
   1153 WAT         1.4090   34.8440   28.0910 O      1153 WAT       0.0655
   1154 WAT         1.4090   34.8440   28.3410 O      1154 WAT       0.1674
   1155 WAT         1.4090   34.8440   28.5910 O      1155 WAT       0.2743
   1156 WAT         1.4090   34.8440   28.8410 O      1156 WAT       0.2976
   1157 WAT         1.4090   34.8440   29.0910 O      1157 WAT       0.2189
   1158 WAT         1.4090   34.8440   29.3410 O      1158 WAT       0.1117
   1159 WAT         1.4090   35.0940    8.5910 O      1159 WAT       0.0523
   1160 WAT         1.4090   35.0940    8.8410 O      1160 WAT       0.0742
   1161 WAT         1.4090   35.0940    9.0910 O      1161 WAT       0.0839
   1162 WAT         1.4090   35.0940    9.3410 O      1162 WAT       0.0766
   1163 WAT         1.4090   35.0940    9.5910 O      1163 WAT       0.0576
   1164 WAT         1.4090   35.0940   28.3410 O      1164 WAT       0.0850
   1165 WAT         1.4090   35.0940   28.5910 O      1165 WAT       0.1382
   1166 WAT         1.4090   35.0940   28.8410 O      1166 WAT       0.1488
   1167 WAT         1.4090   35.0940   29.0910 O      1167 WAT       0.1093
   1168 WAT         1.4090   35.0940   29.3410 O      1168 WAT       0.0560
   1169 WAT         1.4090   35.3440   28.5910 O      1169 WAT       0.0551
   1170 WAT         1.4090   35.3440   28.8410 O      1170 WAT       0.0584
   1171 WAT         1.6590   17.3440   27.0910 O      1171 WAT       0.0469
   1172 WAT         1.6590   17.3440   27.3410 O      1172 WAT       0.0476
   1173 WAT         1.6590   17.5940   26.8410 O      1173 WAT       0.0506
   1174 WAT         1.6590   17.5940   27.0910 O      1174 WAT       0.0544
   1175 WAT         1.6590   17.5940   27.3410 O      1175 WAT       0.0521
   1176 WAT         1.6590   17.8440   26.3410 O      1176 WAT       0.0456
   1177 WAT         1.6590   17.8440   26.5910 O      1177 WAT       0.0531
   1178 WAT         1.6590   17.8440   26.8410 O      1178 WAT       0.0591
   1179 WAT         1.6590   17.8440   27.0910 O      1179 WAT       0.0595
   1180 WAT         1.6590   17.8440   27.3410 O      1180 WAT       0.0519
   1181 WAT         1.6590   18.0940   26.0910 O      1181 WAT       0.0464
   1182 WAT         1.6590   18.0940   26.3410 O      1182 WAT       0.0544
   1183 WAT         1.6590   18.0940   26.5910 O      1183 WAT       0.0623
   1184 WAT         1.6590   18.0940   26.8410 O      1184 WAT       0.0657
   1185 WAT         1.6590   18.0940   27.0910 O      1185 WAT       0.0605
   1186 WAT         1.6590   18.0940   27.3410 O      1186 WAT       0.0472
   1187 WAT         1.6590   18.3440   26.0910 O      1187 WAT       0.0514
   1188 WAT         1.6590   18.3440   26.3410 O      1188 WAT       0.0601
   1189 WAT         1.6590   18.3440   26.5910 O      1189 WAT       0.0669
   1190 WAT         1.6590   18.3440   26.8410 O      1190 WAT       0.0667
   1191 WAT         1.6590   18.3440   27.0910 O      1191 WAT       0.0565
   1192 WAT         1.6590   18.5940   26.0910 O      1192 WAT       0.0512
   1193 WAT         1.6590   18.5940   26.3410 O      1193 WAT       0.0588
   1194 WAT         1.6590   18.5940   26.5910 O      1194 WAT       0.0633
   1195 WAT         1.6590   18.5940   26.8410 O      1195 WAT       0.0600
   1196 WAT         1.6590   18.5940   27.0910 O      1196 WAT       0.0475
   1197 WAT         1.6590   18.8440   26.0910 O      1197 WAT       0.0463
   1198 WAT         1.6590   18.8440   26.3410 O      1198 WAT       0.0510
   1199 WAT         1.6590   18.8440   26.5910 O      1199 WAT       0.0524
   1200 WAT         1.6590   18.8440   26.8410 O      1200 WAT       0.0473
   1201 WAT         1.6590   18.8440   29.3410 O      1201 WAT       0.0525
   1202 WAT         1.6590   18.8440   29.5910 O      1202 WAT       0.0460
   1203 WAT         1.6590   19.0940   29.0910 O      1203 WAT       0.0572
   1204 WAT         1.6590   19.0940   29.3410 O      1204 WAT       0.0782
   1205 WAT         1.6590   19.0940   29.5910 O      1205 WAT       0.0687
   1206 WAT         1.6590   19.3440   29.0910 O      1206 WAT       0.0687
   1207 WAT         1.6590   19.3440   29.3410 O      1207 WAT       0.0935
   1208 WAT         1.6590   19.3440   29.5910 O      1208 WAT       0.0819
   1209 WAT         1.6590   19.5940   29.0910 O      1209 WAT       0.0650
   1210 WAT         1.6590   19.5940   29.3410 O      1210 WAT       0.0869
   1211 WAT         1.6590   19.5940   29.5910 O      1211 WAT       0.0755
   1212 WAT         1.6590   19.8440   19.3410 O      1212 WAT       0.0490
   1213 WAT         1.6590   19.8440   19.5910 O      1213 WAT       0.0603
   1214 WAT         1.6590   19.8440   19.8410 O      1214 WAT       0.0654
   1215 WAT         1.6590   19.8440   20.0910 O      1215 WAT       0.0630
   1216 WAT         1.6590   19.8440   20.3410 O      1216 WAT       0.0554
   1217 WAT         1.6590   19.8440   20.5910 O      1217 WAT       0.0468
   1218 WAT         1.6590   19.8440   29.0910 O      1218 WAT       0.0480
   1219 WAT         1.6590   19.8440   29.3410 O      1219 WAT       0.0615
   1220 WAT         1.6590   19.8440   29.5910 O      1220 WAT       0.0523
   1221 WAT         1.6590   20.0940   19.0910 O      1221 WAT       0.0605
   1222 WAT         1.6590   20.0940   19.3410 O      1222 WAT       0.0794
   1223 WAT         1.6590   20.0940   19.5910 O      1223 WAT       0.0926
   1224 WAT         1.6590   20.0940   19.8410 O      1224 WAT       0.0945
   1225 WAT         1.6590   20.0940   20.0910 O      1225 WAT       0.0853
   1226 WAT         1.6590   20.0940   20.3410 O      1226 WAT       0.0707
   1227 WAT         1.6590   20.0940   20.5910 O      1227 WAT       0.0574
   1228 WAT         1.6590   20.0940   20.8410 O      1228 WAT       0.0495
   1229 WAT         1.6590   20.0940   21.0910 O      1229 WAT       0.0455
   1230 WAT         1.6590   20.3440   18.8410 O      1230 WAT       0.0571
   1231 WAT         1.6590   20.3440   19.0910 O      1231 WAT       0.0759
   1232 WAT         1.6590   20.3440   19.3410 O      1232 WAT       0.0932
   1233 WAT         1.6590   20.3440   19.5910 O      1233 WAT       0.1012
   1234 WAT         1.6590   20.3440   19.8410 O      1234 WAT       0.0959
   1235 WAT         1.6590   20.3440   20.0910 O      1235 WAT       0.0803
   1236 WAT         1.6590   20.3440   20.3410 O      1236 WAT       0.0619
   1237 WAT         1.6590   20.3440   20.5910 O      1237 WAT       0.0480
   1238 WAT         1.6590   20.5940   18.8410 O      1238 WAT       0.0556
   1239 WAT         1.6590   20.5940   19.0910 O      1239 WAT       0.0688
   1240 WAT         1.6590   20.5940   19.3410 O      1240 WAT       0.0778
   1241 WAT         1.6590   20.5940   19.5910 O      1241 WAT       0.0777
   1242 WAT         1.6590   20.5940   19.8410 O      1242 WAT       0.0677
   1243 WAT         1.6590   20.5940   20.0910 O      1243 WAT       0.0518
   1244 WAT         1.6590   20.5940   25.8410 O      1244 WAT       0.0480
   1245 WAT         1.6590   20.5940   26.0910 O      1245 WAT       0.0473
   1246 WAT         1.6590   20.8440   16.3410 O      1246 WAT       0.0500
   1247 WAT         1.6590   20.8440   16.5910 O      1247 WAT       0.0594
   1248 WAT         1.6590   20.8440   16.8410 O      1248 WAT       0.0601
   1249 WAT         1.6590   20.8440   17.0910 O      1249 WAT       0.0538
   1250 WAT         1.6590   20.8440   19.3410 O      1250 WAT       0.0453
   1251 WAT         1.6590   20.8440   25.3410 O      1251 WAT       0.0458
   1252 WAT         1.6590   20.8440   25.5910 O      1252 WAT       0.0588
   1253 WAT         1.6590   20.8440   25.8410 O      1253 WAT       0.0655
   1254 WAT         1.6590   20.8440   26.0910 O      1254 WAT       0.0596
   1255 WAT         1.6590   21.0940   15.8410 O      1255 WAT       0.0638
   1256 WAT         1.6590   21.0940   16.0910 O      1256 WAT       0.0967
   1257 WAT         1.6590   21.0940   16.3410 O      1257 WAT       0.1198
   1258 WAT         1.6590   21.0940   16.5910 O      1258 WAT       0.1212
   1259 WAT         1.6590   21.0940   16.8410 O      1259 WAT       0.1018
   1260 WAT         1.6590   21.0940   17.0910 O      1260 WAT       0.0735
   1261 WAT         1.6590   21.0940   17.3410 O      1261 WAT       0.0483
   1262 WAT         1.6590   21.0940   25.3410 O      1262 WAT       0.0586
   1263 WAT         1.6590   21.0940   25.5910 O      1263 WAT       0.0706
   1264 WAT         1.6590   21.0940   25.8410 O      1264 WAT       0.0718
   1265 WAT         1.6590   21.0940   26.0910 O      1265 WAT       0.0585
   1266 WAT         1.6590   21.3440   15.3410 O      1266 WAT       0.0459
   1267 WAT         1.6590   21.3440   15.5910 O      1267 WAT       0.0928
   1268 WAT         1.6590   21.3440   15.8410 O      1268 WAT       0.1538
   1269 WAT         1.6590   21.3440   16.0910 O      1269 WAT       0.2066
   1270 WAT         1.6590   21.3440   16.3410 O      1270 WAT       0.2239
   1271 WAT         1.6590   21.3440   16.5910 O      1271 WAT       0.1952
   1272 WAT         1.6590   21.3440   16.8410 O      1272 WAT       0.1379
   1273 WAT         1.6590   21.3440   17.0910 O      1273 WAT       0.0812
   1274 WAT         1.6590   21.3440   25.0910 O      1274 WAT       0.0503
   1275 WAT         1.6590   21.3440   25.3410 O      1275 WAT       0.0611
   1276 WAT         1.6590   21.3440   25.5910 O      1276 WAT       0.0652
   1277 WAT         1.6590   21.3440   25.8410 O      1277 WAT       0.0584
   1278 WAT         1.6590   21.5940   15.0910 O      1278 WAT       0.0480
   1279 WAT         1.6590   21.5940   15.3410 O      1279 WAT       0.1025
   1280 WAT         1.6590   21.5940   15.5910 O      1280 WAT       0.1854
   1281 WAT         1.6590   21.5940   15.8410 O      1281 WAT       0.2736
   1282 WAT         1.6590   21.5940   16.0910 O      1282 WAT       0.3245
   1283 WAT         1.6590   21.5940   16.3410 O      1283 WAT       0.3075
   1284 WAT         1.6590   21.5940   16.5910 O      1284 WAT       0.2319
   1285 WAT         1.6590   21.5940   16.8410 O      1285 WAT       0.1394
   1286 WAT         1.6590   21.5940   17.0910 O      1286 WAT       0.0679
   1287 WAT         1.6590   21.5940   25.0910 O      1287 WAT       0.0458
   1288 WAT         1.6590   21.5940   25.3410 O      1288 WAT       0.0492
   1289 WAT         1.6590   21.8440   10.3410 O      1289 WAT       0.0470
   1290 WAT         1.6590   21.8440   10.5910 O      1290 WAT       0.0541
   1291 WAT         1.6590   21.8440   10.8410 O      1291 WAT       0.0555
   1292 WAT         1.6590   21.8440   11.0910 O      1292 WAT       0.0506
   1293 WAT         1.6590   21.8440   15.0910 O      1293 WAT       0.0889
   1294 WAT         1.6590   21.8440   15.3410 O      1294 WAT       0.1685
   1295 WAT         1.6590   21.8440   15.5910 O      1295 WAT       0.2695
   1296 WAT         1.6590   21.8440   15.8410 O      1296 WAT       0.3503
   1297 WAT         1.6590   21.8440   16.0910 O      1297 WAT       0.3640
   1298 WAT         1.6590   21.8440   16.3410 O      1298 WAT       0.3004
   1299 WAT         1.6590   21.8440   16.5910 O      1299 WAT       0.1959
   1300 WAT         1.6590   21.8440   16.8410 O      1300 WAT       0.1006
   1301 WAT         1.6590   22.0940   10.3410 O      1301 WAT       0.0537
   1302 WAT         1.6590   22.0940   10.5910 O      1302 WAT       0.0613
   1303 WAT         1.6590   22.0940   10.8410 O      1303 WAT       0.0631
   1304 WAT         1.6590   22.0940   11.0910 O      1304 WAT       0.0575
   1305 WAT         1.6590   22.0940   11.3410 O      1305 WAT       0.0470
   1306 WAT         1.6590   22.0940   14.8410 O      1306 WAT       0.0677
   1307 WAT         1.6590   22.0940   15.0910 O      1307 WAT       0.1233
   1308 WAT         1.6590   22.0940   15.3410 O      1308 WAT       0.2031
   1309 WAT         1.6590   22.0940   15.5910 O      1309 WAT       0.2824
   1310 WAT         1.6590   22.0940   15.8410 O      1310 WAT       0.3191
   1311 WAT         1.6590   22.0940   16.0910 O      1311 WAT       0.2877
   1312 WAT         1.6590   22.0940   16.3410 O      1312 WAT       0.2054
   1313 WAT         1.6590   22.0940   16.5910 O      1313 WAT       0.1153
   1314 WAT         1.6590   22.0940   16.8410 O      1314 WAT       0.0502
   1315 WAT         1.6590   22.3440   10.0910 O      1315 WAT       0.0459
   1316 WAT         1.6590   22.3440   10.3410 O      1316 WAT       0.0548
   1317 WAT         1.6590   22.3440   10.5910 O      1317 WAT       0.0605
   1318 WAT         1.6590   22.3440   10.8410 O      1318 WAT       0.0606
   1319 WAT         1.6590   22.3440   11.0910 O      1319 WAT       0.0544
   1320 WAT         1.6590   22.3440   13.0910 O      1320 WAT       0.0465
   1321 WAT         1.6590   22.3440   13.3410 O      1321 WAT       0.0523
   1322 WAT         1.6590   22.3440   13.5910 O      1322 WAT       0.0510
   1323 WAT         1.6590   22.3440   14.5910 O      1323 WAT       0.0516
   1324 WAT         1.6590   22.3440   14.8410 O      1324 WAT       0.0818
   1325 WAT         1.6590   22.3440   15.0910 O      1325 WAT       0.1282
   1326 WAT         1.6590   22.3440   15.3410 O      1326 WAT       0.1798
   1327 WAT         1.6590   22.3440   15.5910 O      1327 WAT       0.2131
   1328 WAT         1.6590   22.3440   15.8410 O      1328 WAT       0.2062
   1329 WAT         1.6590   22.3440   16.0910 O      1329 WAT       0.1595
   1330 WAT         1.6590   22.3440   16.3410 O      1330 WAT       0.0974
   1331 WAT         1.6590   22.3440   16.5910 O      1331 WAT       0.0462
   1332 WAT         1.6590   22.5940   10.3410 O      1332 WAT       0.0491
   1333 WAT         1.6590   22.5940   10.5910 O      1333 WAT       0.0513
   1334 WAT         1.6590   22.5940   10.8410 O      1334 WAT       0.0488
   1335 WAT         1.6590   22.5940   13.0910 O      1335 WAT       0.0499
   1336 WAT         1.6590   22.5940   13.3410 O      1336 WAT       0.0578
   1337 WAT         1.6590   22.5940   13.5910 O      1337 WAT       0.0575
   1338 WAT         1.6590   22.5940   13.8410 O      1338 WAT       0.0511
   1339 WAT         1.6590   22.5940   14.5910 O      1339 WAT       0.0547
   1340 WAT         1.6590   22.5940   14.8410 O      1340 WAT       0.0758
   1341 WAT         1.6590   22.5940   15.0910 O      1341 WAT       0.1007
   1342 WAT         1.6590   22.5940   15.3410 O      1342 WAT       0.1178
   1343 WAT         1.6590   22.5940   15.5910 O      1343 WAT       0.1166
   1344 WAT         1.6590   22.5940   15.8410 O      1344 WAT       0.0947
   1345 WAT         1.6590   22.5940   16.0910 O      1345 WAT       0.0616
   1346 WAT         1.6590   22.8440   13.0910 O      1346 WAT       0.0453
   1347 WAT         1.6590   22.8440   13.3410 O      1347 WAT       0.0542
   1348 WAT         1.6590   22.8440   13.5910 O      1348 WAT       0.0555
   1349 WAT         1.6590   22.8440   13.8410 O      1349 WAT       0.0503
   1350 WAT         1.6590   22.8440   14.5910 O      1350 WAT       0.0458
   1351 WAT         1.6590   22.8440   14.8410 O      1351 WAT       0.0541
   1352 WAT         1.6590   22.8440   15.0910 O      1352 WAT       0.0600
   1353 WAT         1.6590   22.8440   15.3410 O      1353 WAT       0.0578
   1354 WAT         1.6590   22.8440   15.5910 O      1354 WAT       0.0466
   1355 WAT         1.6590   23.0940   13.5910 O      1355 WAT       0.0451
   1356 WAT         1.6590   23.3440    8.3410 O      1356 WAT       0.0479
   1357 WAT         1.6590   23.3440    8.5910 O      1357 WAT       0.0478
   1358 WAT         1.6590   23.5940    8.0910 O      1358 WAT       0.0461
   1359 WAT         1.6590   23.5940    8.3410 O      1359 WAT       0.0544
   1360 WAT         1.6590   23.5940    8.5910 O      1360 WAT       0.0584
   1361 WAT         1.6590   23.5940    8.8410 O      1361 WAT       0.0543
   1362 WAT         1.6590   23.8440    8.3410 O      1362 WAT       0.0501
   1363 WAT         1.6590   23.8440    8.5910 O      1363 WAT       0.0583
   1364 WAT         1.6590   23.8440    8.8410 O      1364 WAT       0.0598
   1365 WAT         1.6590   23.8440    9.0910 O      1365 WAT       0.0519
   1366 WAT         1.6590   24.0940    8.5910 O      1366 WAT       0.0473
   1367 WAT         1.6590   24.0940    8.8410 O      1367 WAT       0.0544
   1368 WAT         1.6590   24.0940    9.0910 O      1368 WAT       0.0535
   1369 WAT         1.6590   24.3440    9.0910 O      1369 WAT       0.0454
   1370 WAT         1.6590   24.5940    5.8410 O      1370 WAT       0.0459
   1371 WAT         1.6590   24.5940   13.8410 O      1371 WAT       0.0492
   1372 WAT         1.6590   24.5940   14.0910 O      1372 WAT       0.0555
   1373 WAT         1.6590   24.8440    5.5910 O      1373 WAT       0.0487
   1374 WAT         1.6590   24.8440    5.8410 O      1374 WAT       0.0493
   1375 WAT         1.6590   24.8440   13.8410 O      1375 WAT       0.0616
   1376 WAT         1.6590   24.8440   14.0910 O      1376 WAT       0.0650
   1377 WAT         1.6590   24.8440   14.3410 O      1377 WAT       0.0454
   1378 WAT         1.6590   25.0940    5.5910 O      1378 WAT       0.0517
   1379 WAT         1.6590   25.0940    5.8410 O      1379 WAT       0.0479
   1380 WAT         1.6590   25.0940   13.8410 O      1380 WAT       0.0638
   1381 WAT         1.6590   25.0940   14.0910 O      1381 WAT       0.0625
   1382 WAT         1.6590   25.3440    5.3410 O      1382 WAT       0.0465
   1383 WAT         1.6590   25.3440    5.5910 O      1383 WAT       0.0512
   1384 WAT         1.6590   25.3440   13.8410 O      1384 WAT       0.0558
   1385 WAT         1.6590   25.3440   14.0910 O      1385 WAT       0.0506
   1386 WAT         1.6590   25.5940    5.3410 O      1386 WAT       0.0471
   1387 WAT         1.6590   25.5940    5.5910 O      1387 WAT       0.0482
   1388 WAT         1.6590   25.8440    5.3410 O      1388 WAT       0.0457
   1389 WAT         1.6590   27.0940    5.3410 O      1389 WAT       0.0491
   1390 WAT         1.6590   27.0940    5.5910 O      1390 WAT       0.0521
   1391 WAT         1.6590   27.3440    5.3410 O      1391 WAT       0.0554
   1392 WAT         1.6590   27.3440    5.5910 O      1392 WAT       0.0653
   1393 WAT         1.6590   27.3440    5.8410 O      1393 WAT       0.0600
   1394 WAT         1.6590   27.3440   18.0910 O      1394 WAT       0.0651
   1395 WAT         1.6590   27.3440   18.3410 O      1395 WAT       0.0828
   1396 WAT         1.6590   27.3440   18.5910 O      1396 WAT       0.0659
   1397 WAT         1.6590   27.5940    5.3410 O      1397 WAT       0.0583
   1398 WAT         1.6590   27.5940    5.5910 O      1398 WAT       0.0766
   1399 WAT         1.6590   27.5940    5.8410 O      1399 WAT       0.0803
   1400 WAT         1.6590   27.5940    6.0910 O      1400 WAT       0.0666
   1401 WAT         1.6590   27.5940   17.8410 O      1401 WAT       0.1031
   1402 WAT         1.6590   27.5940   18.0910 O      1402 WAT       0.2033
   1403 WAT         1.6590   27.5940   18.3410 O      1403 WAT       0.2540
   1404 WAT         1.6590   27.5940   18.5910 O      1404 WAT       0.2008
   1405 WAT         1.6590   27.5940   18.8410 O      1405 WAT       0.0998
   1406 WAT         1.6590   27.8440    5.3410 O      1406 WAT       0.0548
   1407 WAT         1.6590   27.8440    5.5910 O      1407 WAT       0.0795
   1408 WAT         1.6590   27.8440    5.8410 O      1408 WAT       0.0950
   1409 WAT         1.6590   27.8440    6.0910 O      1409 WAT       0.0915
   1410 WAT         1.6590   27.8440    6.3410 O      1410 WAT       0.0716
   1411 WAT         1.6590   27.8440    6.5910 O      1411 WAT       0.0467
   1412 WAT         1.6590   27.8440   17.5910 O      1412 WAT       0.0675
   1413 WAT         1.6590   27.8440   17.8410 O      1413 WAT       0.2080
   1414 WAT         1.6590   27.8440   18.0910 O      1414 WAT       0.4040
   1415 WAT         1.6590   27.8440   18.3410 O      1415 WAT       0.4984
   1416 WAT         1.6590   27.8440   18.5910 O      1416 WAT       0.3894
   1417 WAT         1.6590   27.8440   18.8410 O      1417 WAT       0.1921
   1418 WAT         1.6590   27.8440   19.0910 O      1418 WAT       0.0587
   1419 WAT         1.6590   28.0940    5.5910 O      1419 WAT       0.0704
   1420 WAT         1.6590   28.0940    5.8410 O      1420 WAT       0.0949
   1421 WAT         1.6590   28.0940    6.0910 O      1421 WAT       0.1059
   1422 WAT         1.6590   28.0940    6.3410 O      1422 WAT       0.0979
   1423 WAT         1.6590   28.0940    6.5910 O      1423 WAT       0.0768
   1424 WAT         1.6590   28.0940    6.8410 O      1424 WAT       0.0535
   1425 WAT         1.6590   28.0940    9.0910 O      1425 WAT       0.0461
   1426 WAT         1.6590   28.0940    9.3410 O      1426 WAT       0.0570
   1427 WAT         1.6590   28.0940    9.5910 O      1427 WAT       0.0540
   1428 WAT         1.6590   28.0940   17.5910 O      1428 WAT       0.0893
   1429 WAT         1.6590   28.0940   17.8410 O      1429 WAT       0.2706
   1430 WAT         1.6590   28.0940   18.0910 O      1430 WAT       0.5193
   1431 WAT         1.6590   28.0940   18.3410 O      1431 WAT       0.6329
   1432 WAT         1.6590   28.0940   18.5910 O      1432 WAT       0.4884
   1433 WAT         1.6590   28.0940   18.8410 O      1433 WAT       0.2380
   1434 WAT         1.6590   28.0940   19.0910 O      1434 WAT       0.0724
   1435 WAT         1.6590   28.3440    5.5910 O      1435 WAT       0.0527
   1436 WAT         1.6590   28.3440    5.8410 O      1436 WAT       0.0787
   1437 WAT         1.6590   28.3440    6.0910 O      1437 WAT       0.1009
   1438 WAT         1.6590   28.3440    6.3410 O      1438 WAT       0.1092
   1439 WAT         1.6590   28.3440    6.5910 O      1439 WAT       0.1012
   1440 WAT         1.6590   28.3440    6.8410 O      1440 WAT       0.0832
   1441 WAT         1.6590   28.3440    7.0910 O      1441 WAT       0.0636
   1442 WAT         1.6590   28.3440    7.3410 O      1442 WAT       0.0478
   1443 WAT         1.6590   28.3440    8.8410 O      1443 WAT       0.0496
   1444 WAT         1.6590   28.3440    9.0910 O      1444 WAT       0.0625
   1445 WAT         1.6590   28.3440    9.3410 O      1445 WAT       0.0677
   1446 WAT         1.6590   28.3440    9.5910 O      1446 WAT       0.0577
   1447 WAT         1.6590   28.3440   17.5910 O      1447 WAT       0.0761
   1448 WAT         1.6590   28.3440   17.8410 O      1448 WAT       0.2284
   1449 WAT         1.6590   28.3440   18.0910 O      1449 WAT       0.4326
   1450 WAT         1.6590   28.3440   18.3410 O      1450 WAT       0.5202
   1451 WAT         1.6590   28.3440   18.5910 O      1451 WAT       0.3960
   1452 WAT         1.6590   28.3440   18.8410 O      1452 WAT       0.1904
   1453 WAT         1.6590   28.3440   19.0910 O      1453 WAT       0.0568
   1454 WAT         1.6590   28.5940    5.8410 O      1454 WAT       0.0549
   1455 WAT         1.6590   28.5940    6.0910 O      1455 WAT       0.0787
   1456 WAT         1.6590   28.5940    6.3410 O      1456 WAT       0.0976
   1457 WAT         1.6590   28.5940    6.5910 O      1457 WAT       0.1043
   1458 WAT         1.6590   28.5940    6.8410 O      1458 WAT       0.0982
   1459 WAT         1.6590   28.5940    7.0910 O      1459 WAT       0.0848
   1460 WAT         1.6590   28.5940    7.3410 O      1460 WAT       0.0705
   1461 WAT         1.6590   28.5940    7.5910 O      1461 WAT       0.0599
   1462 WAT         1.6590   28.5940    7.8410 O      1462 WAT       0.0543
   1463 WAT         1.6590   28.5940    8.0910 O      1463 WAT       0.0526
   1464 WAT         1.6590   28.5940    8.3410 O      1464 WAT       0.0532
   1465 WAT         1.6590   28.5940    8.5910 O      1465 WAT       0.0566
   1466 WAT         1.6590   28.5940    8.8410 O      1466 WAT       0.0631
   1467 WAT         1.6590   28.5940    9.0910 O      1467 WAT       0.0689
   1468 WAT         1.6590   28.5940    9.3410 O      1468 WAT       0.0659
   1469 WAT         1.6590   28.5940    9.5910 O      1469 WAT       0.0507
   1470 WAT         1.6590   28.5940   17.8410 O      1470 WAT       0.1249
   1471 WAT         1.6590   28.5940   18.0910 O      1471 WAT       0.2336
   1472 WAT         1.6590   28.5940   18.3410 O      1472 WAT       0.2765
   1473 WAT         1.6590   28.5940   18.5910 O      1473 WAT       0.2072
   1474 WAT         1.6590   28.5940   18.8410 O      1474 WAT       0.0976
   1475 WAT         1.6590   28.5940   25.5910 O      1475 WAT       0.0505
   1476 WAT         1.6590   28.8440    6.0910 O      1476 WAT       0.0515
   1477 WAT         1.6590   28.8440    6.3410 O      1477 WAT       0.0697
   1478 WAT         1.6590   28.8440    6.5910 O      1478 WAT       0.0830
   1479 WAT         1.6590   28.8440    6.8410 O      1479 WAT       0.0871
   1480 WAT         1.6590   28.8440    7.0910 O      1480 WAT       0.0829
   1481 WAT         1.6590   28.8440    7.3410 O      1481 WAT       0.0750
   1482 WAT         1.6590   28.8440    7.5910 O      1482 WAT       0.0682
   1483 WAT         1.6590   28.8440    7.8410 O      1483 WAT       0.0644
   1484 WAT         1.6590   28.8440    8.0910 O      1484 WAT       0.0630
   1485 WAT         1.6590   28.8440    8.3410 O      1485 WAT       0.0623
   1486 WAT         1.6590   28.8440    8.5910 O      1486 WAT       0.0621
   1487 WAT         1.6590   28.8440    8.8410 O      1487 WAT       0.0626
   1488 WAT         1.6590   28.8440    9.0910 O      1488 WAT       0.0610
   1489 WAT         1.6590   28.8440    9.3410 O      1489 WAT       0.0525
   1490 WAT         1.6590   28.8440   18.0910 O      1490 WAT       0.0808
   1491 WAT         1.6590   28.8440   18.3410 O      1491 WAT       0.0942
   1492 WAT         1.6590   28.8440   18.5910 O      1492 WAT       0.0689
   1493 WAT         1.6590   28.8440   25.5910 O      1493 WAT       0.0469
   1494 WAT         1.6590   29.0940    6.5910 O      1494 WAT       0.0518
   1495 WAT         1.6590   29.0940    6.8410 O      1495 WAT       0.0587
   1496 WAT         1.6590   29.0940    7.0910 O      1496 WAT       0.0606
   1497 WAT         1.6590   29.0940    7.3410 O      1497 WAT       0.0591
   1498 WAT         1.6590   29.0940    7.5910 O      1498 WAT       0.0570
   1499 WAT         1.6590   29.0940    7.8410 O      1499 WAT       0.0557
   1500 WAT         1.6590   29.0940    8.0910 O      1500 WAT       0.0551
   1501 WAT         1.6590   29.0940    8.3410 O      1501 WAT       0.0540
   1502 WAT         1.6590   29.0940    8.5910 O      1502 WAT       0.0518
   1503 WAT         1.6590   29.0940    8.8410 O      1503 WAT       0.0488
   1504 WAT         1.6590   29.8440    4.5910 O      1504 WAT       0.0454
   1505 WAT         1.6590   30.0940    4.3410 O      1505 WAT       0.0454
   1506 WAT         1.6590   30.0940    7.8410 O      1506 WAT       0.0491
   1507 WAT         1.6590   30.0940    8.0910 O      1507 WAT       0.0488
   1508 WAT         1.6590   30.0940   14.5910 O      1508 WAT       0.0465
   1509 WAT         1.6590   30.0940   14.8410 O      1509 WAT       0.0517
   1510 WAT         1.6590   30.3440    3.8410 O      1510 WAT       0.0455
   1511 WAT         1.6590   30.3440    7.5910 O      1511 WAT       0.0460
   1512 WAT         1.6590   30.3440    7.8410 O      1512 WAT       0.0603
   1513 WAT         1.6590   30.3440    8.0910 O      1513 WAT       0.0620
   1514 WAT         1.6590   30.3440    8.3410 O      1514 WAT       0.0514
   1515 WAT         1.6590   30.3440   14.3410 O      1515 WAT       0.0517
   1516 WAT         1.6590   30.3440   14.5910 O      1516 WAT       0.0882
   1517 WAT         1.6590   30.3440   14.8410 O      1517 WAT       0.1006
   1518 WAT         1.6590   30.3440   15.0910 O      1518 WAT       0.0770
   1519 WAT         1.6590   30.5940    3.3410 O      1519 WAT       0.0456
   1520 WAT         1.6590   30.5940    3.5910 O      1520 WAT       0.0514
   1521 WAT         1.6590   30.5940    3.8410 O      1521 WAT       0.0473
   1522 WAT         1.6590   30.5940    7.8410 O      1522 WAT       0.0603
   1523 WAT         1.6590   30.5940    8.0910 O      1523 WAT       0.0659
   1524 WAT         1.6590   30.5940    8.3410 O      1524 WAT       0.0556
   1525 WAT         1.6590   30.5940   14.3410 O      1525 WAT       0.0856
   1526 WAT         1.6590   30.5940   14.5910 O      1526 WAT       0.1448
   1527 WAT         1.6590   30.5940   14.8410 O      1527 WAT       0.1653
   1528 WAT         1.6590   30.5940   15.0910 O      1528 WAT       0.1270
   1529 WAT         1.6590   30.5940   15.3410 O      1529 WAT       0.0657
   1530 WAT         1.6590   30.8440    3.0910 O      1530 WAT       0.0458
   1531 WAT         1.6590   30.8440    3.3410 O      1531 WAT       0.0552
   1532 WAT         1.6590   30.8440    3.5910 O      1532 WAT       0.0544
   1533 WAT         1.6590   30.8440    7.8410 O      1533 WAT       0.0493
   1534 WAT         1.6590   30.8440    8.0910 O      1534 WAT       0.0582
   1535 WAT         1.6590   30.8440    8.3410 O      1535 WAT       0.0514
   1536 WAT         1.6590   30.8440   14.0910 O      1536 WAT       0.0507
   1537 WAT         1.6590   30.8440   14.3410 O      1537 WAT       0.1208
   1538 WAT         1.6590   30.8440   14.5910 O      1538 WAT       0.1977
   1539 WAT         1.6590   30.8440   14.8410 O      1539 WAT       0.2210
   1540 WAT         1.6590   30.8440   15.0910 O      1540 WAT       0.1677
   1541 WAT         1.6590   30.8440   15.3410 O      1541 WAT       0.0862
   1542 WAT         1.6590   31.0940    3.0910 O      1542 WAT       0.0506
   1543 WAT         1.6590   31.0940    3.3410 O      1543 WAT       0.0551
   1544 WAT         1.6590   31.0940    3.5910 O      1544 WAT       0.0479
   1545 WAT         1.6590   31.0940   14.0910 O      1545 WAT       0.0633
   1546 WAT         1.6590   31.0940   14.3410 O      1546 WAT       0.1411
   1547 WAT         1.6590   31.0940   14.5910 O      1547 WAT       0.2194
   1548 WAT         1.6590   31.0940   14.8410 O      1548 WAT       0.2358
   1549 WAT         1.6590   31.0940   15.0910 O      1549 WAT       0.1741
   1550 WAT         1.6590   31.0940   15.3410 O      1550 WAT       0.0878
   1551 WAT         1.6590   31.3440    3.0910 O      1551 WAT       0.0465
   1552 WAT         1.6590   31.3440    3.3410 O      1552 WAT       0.0456
   1553 WAT         1.6590   31.3440   14.0910 O      1553 WAT       0.0647
   1554 WAT         1.6590   31.3440   14.3410 O      1554 WAT       0.1336
   1555 WAT         1.6590   31.3440   14.5910 O      1555 WAT       0.1948
   1556 WAT         1.6590   31.3440   14.8410 O      1556 WAT       0.1990
   1557 WAT         1.6590   31.3440   15.0910 O      1557 WAT       0.1412
   1558 WAT         1.6590   31.3440   15.3410 O      1558 WAT       0.0691
   1559 WAT         1.6590   31.5940   14.0910 O      1559 WAT       0.0530
   1560 WAT         1.6590   31.5940   14.3410 O      1560 WAT       0.1007
   1561 WAT         1.6590   31.5940   14.5910 O      1561 WAT       0.1370
   1562 WAT         1.6590   31.5940   14.8410 O      1562 WAT       0.1321
   1563 WAT         1.6590   31.5940   15.0910 O      1563 WAT       0.0895
   1564 WAT         1.6590   31.8440   14.3410 O      1564 WAT       0.0598
   1565 WAT         1.6590   31.8440   14.5910 O      1565 WAT       0.0757
   1566 WAT         1.6590   31.8440   14.8410 O      1566 WAT       0.0687
   1567 WAT         1.6590   33.3440    9.3410 O      1567 WAT       0.0475
   1568 WAT         1.6590   33.5940    8.8410 O      1568 WAT       0.0517
   1569 WAT         1.6590   33.5940    9.0910 O      1569 WAT       0.0802
   1570 WAT         1.6590   33.5940    9.3410 O      1570 WAT       0.0978
   1571 WAT         1.6590   33.5940    9.5910 O      1571 WAT       0.0925
   1572 WAT         1.6590   33.5940    9.8410 O      1572 WAT       0.0673
   1573 WAT         1.6590   33.5940   28.5910 O      1573 WAT       0.0579
   1574 WAT         1.6590   33.5940   28.8410 O      1574 WAT       0.0588
   1575 WAT         1.6590   33.8440    8.5910 O      1575 WAT       0.0455
   1576 WAT         1.6590   33.8440    8.8410 O      1576 WAT       0.0900
   1577 WAT         1.6590   33.8440    9.0910 O      1577 WAT       0.1388
   1578 WAT         1.6590   33.8440    9.3410 O      1578 WAT       0.1667
   1579 WAT         1.6590   33.8440    9.5910 O      1579 WAT       0.1554
   1580 WAT         1.6590   33.8440    9.8410 O      1580 WAT       0.1118
   1581 WAT         1.6590   33.8440   10.0910 O      1581 WAT       0.0626
   1582 WAT         1.6590   33.8440   28.0910 O      1582 WAT       0.0468
   1583 WAT         1.6590   33.8440   28.3410 O      1583 WAT       0.1202
   1584 WAT         1.6590   33.8440   28.5910 O      1584 WAT       0.1931
   1585 WAT         1.6590   33.8440   28.8410 O      1585 WAT       0.2001
   1586 WAT         1.6590   33.8440   29.0910 O      1586 WAT       0.1363
   1587 WAT         1.6590   33.8440   29.3410 O      1587 WAT       0.0619
   1588 WAT         1.6590   34.0940    8.5910 O      1588 WAT       0.0691
   1589 WAT         1.6590   34.0940    8.8410 O      1589 WAT       0.1336
   1590 WAT         1.6590   34.0940    9.0910 O      1590 WAT       0.1998
   1591 WAT         1.6590   34.0940    9.3410 O      1591 WAT       0.2317
   1592 WAT         1.6590   34.0940    9.5910 O      1592 WAT       0.2087
   1593 WAT         1.6590   34.0940    9.8410 O      1593 WAT       0.1465
   1594 WAT         1.6590   34.0940   10.0910 O      1594 WAT       0.0814
   1595 WAT         1.6590   34.0940   28.0910 O      1595 WAT       0.0968
   1596 WAT         1.6590   34.0940   28.3410 O      1596 WAT       0.2480
   1597 WAT         1.6590   34.0940   28.5910 O      1597 WAT       0.4036
   1598 WAT         1.6590   34.0940   28.8410 O      1598 WAT       0.4264
   1599 WAT         1.6590   34.0940   29.0910 O      1599 WAT       0.2981
   1600 WAT         1.6590   34.0940   29.3410 O      1600 WAT       0.1411
   1601 WAT         1.6590   34.0940   29.5910 O      1601 WAT       0.0454
   1602 WAT         1.6590   34.3440    8.5910 O      1602 WAT       0.0893
   1603 WAT         1.6590   34.3440    8.8410 O      1603 WAT       0.1655
   1604 WAT         1.6590   34.3440    9.0910 O      1604 WAT       0.2355
   1605 WAT         1.6590   34.3440    9.3410 O      1605 WAT       0.2597
   1606 WAT         1.6590   34.3440    9.5910 O      1606 WAT       0.2233
   1607 WAT         1.6590   34.3440    9.8410 O      1607 WAT       0.1513
   1608 WAT         1.6590   34.3440   10.0910 O      1608 WAT       0.0829
   1609 WAT         1.6590   34.3440   28.0910 O      1609 WAT       0.1293
   1610 WAT         1.6590   34.3440   28.3410 O      1610 WAT       0.3322
   1611 WAT         1.6590   34.3440   28.5910 O      1611 WAT       0.5469
   1612 WAT         1.6590   34.3440   28.8410 O      1612 WAT       0.5875
   1613 WAT         1.6590   34.3440   29.0910 O      1613 WAT       0.4199
   1614 WAT         1.6590   34.3440   29.3410 O      1614 WAT       0.2047
   1615 WAT         1.6590   34.3440   29.5910 O      1615 WAT       0.0691
   1616 WAT         1.6590   34.5940    8.5910 O      1616 WAT       0.0960
   1617 WAT         1.6590   34.5940    8.8410 O      1617 WAT       0.1678
   1618 WAT         1.6590   34.5940    9.0910 O      1618 WAT       0.2248
   1619 WAT         1.6590   34.5940    9.3410 O      1619 WAT       0.2331
   1620 WAT         1.6590   34.5940    9.5910 O      1620 WAT       0.1896
   1621 WAT         1.6590   34.5940    9.8410 O      1621 WAT       0.1234
   1622 WAT         1.6590   34.5940   10.0910 O      1622 WAT       0.0668
   1623 WAT         1.6590   34.5940   28.0910 O      1623 WAT       0.1173
   1624 WAT         1.6590   34.5940   28.3410 O      1624 WAT       0.3016
   1625 WAT         1.6590   34.5940   28.5910 O      1625 WAT       0.4989
   1626 WAT         1.6590   34.5940   28.8410 O      1626 WAT       0.5417
   1627 WAT         1.6590   34.5940   29.0910 O      1627 WAT       0.3942
   1628 WAT         1.6590   34.5940   29.3410 O      1628 WAT       0.1972
   1629 WAT         1.6590   34.5940   29.5910 O      1629 WAT       0.0687
   1630 WAT         1.6590   34.8440    8.5910 O      1630 WAT       0.0844
   1631 WAT         1.6590   34.8440    8.8410 O      1631 WAT       0.1370
   1632 WAT         1.6590   34.8440    9.0910 O      1632 WAT       0.1710
   1633 WAT         1.6590   34.8440    9.3410 O      1633 WAT       0.1661
   1634 WAT         1.6590   34.8440    9.5910 O      1634 WAT       0.1275
   1635 WAT         1.6590   34.8440    9.8410 O      1635 WAT       0.0797
   1636 WAT         1.6590   34.8440   28.0910 O      1636 WAT       0.0775
   1637 WAT         1.6590   34.8440   28.3410 O      1637 WAT       0.1982
   1638 WAT         1.6590   34.8440   28.5910 O      1638 WAT       0.3261
   1639 WAT         1.6590   34.8440   28.8410 O      1639 WAT       0.3547
   1640 WAT         1.6590   34.8440   29.0910 O      1640 WAT       0.2610
   1641 WAT         1.6590   34.8440   29.3410 O      1641 WAT       0.1331
   1642 WAT         1.6590   34.8440   29.5910 O      1642 WAT       0.0473
   1643 WAT         1.6590   35.0940    8.5910 O      1643 WAT       0.0592
   1644 WAT         1.6590   35.0940    8.8410 O      1644 WAT       0.0879
   1645 WAT         1.6590   35.0940    9.0910 O      1645 WAT       0.1015
   1646 WAT         1.6590   35.0940    9.3410 O      1646 WAT       0.0922
   1647 WAT         1.6590   35.0940    9.5910 O      1647 WAT       0.0671
   1648 WAT         1.6590   35.0940   28.3410 O      1648 WAT       0.1018
   1649 WAT         1.6590   35.0940   28.5910 O      1649 WAT       0.1654
   1650 WAT         1.6590   35.0940   28.8410 O      1650 WAT       0.1782
   1651 WAT         1.6590   35.0940   29.0910 O      1651 WAT       0.1311
   1652 WAT         1.6590   35.0940   29.3410 O      1652 WAT       0.0674
   1653 WAT         1.6590   35.3440    9.0910 O      1653 WAT       0.0455
   1654 WAT         1.6590   35.3440   28.5910 O      1654 WAT       0.0673
   1655 WAT         1.6590   35.3440   28.8410 O      1655 WAT       0.0714
   1656 WAT         1.6590   35.3440   29.0910 O      1656 WAT       0.0521
   1657 WAT         1.9090   17.3440   26.8410 O      1657 WAT       0.0465
   1658 WAT         1.9090   17.3440   27.0910 O      1658 WAT       0.0490
   1659 WAT         1.9090   17.3440   27.3410 O      1659 WAT       0.0470
   1660 WAT         1.9090   17.5940   26.5910 O      1660 WAT       0.0489
   1661 WAT         1.9090   17.5940   26.8410 O      1661 WAT       0.0540
   1662 WAT         1.9090   17.5940   27.0910 O      1662 WAT       0.0552
   1663 WAT         1.9090   17.5940   27.3410 O      1663 WAT       0.0500
   1664 WAT         1.9090   17.8440   26.3410 O      1664 WAT       0.0509
   1665 WAT         1.9090   17.8440   26.5910 O      1665 WAT       0.0574
   1666 WAT         1.9090   17.8440   26.8410 O      1666 WAT       0.0609
   1667 WAT         1.9090   17.8440   27.0910 O      1667 WAT       0.0578
   1668 WAT         1.9090   17.8440   27.3410 O      1668 WAT       0.0472
   1669 WAT         1.9090   18.0940   26.0910 O      1669 WAT       0.0521
   1670 WAT         1.9090   18.0940   26.3410 O      1670 WAT       0.0599
   1671 WAT         1.9090   18.0940   26.5910 O      1671 WAT       0.0659
   1672 WAT         1.9090   18.0940   26.8410 O      1672 WAT       0.0656
   1673 WAT         1.9090   18.0940   27.0910 O      1673 WAT       0.0562
   1674 WAT         1.9090   18.3440   25.8410 O      1674 WAT       0.0496
   1675 WAT         1.9090   18.3440   26.0910 O      1675 WAT       0.0577
   1676 WAT         1.9090   18.3440   26.3410 O      1676 WAT       0.0657
   1677 WAT         1.9090   18.3440   26.5910 O      1677 WAT       0.0698
   1678 WAT         1.9090   18.3440   26.8410 O      1678 WAT       0.0651
   1679 WAT         1.9090   18.3440   27.0910 O      1679 WAT       0.0505
   1680 WAT         1.9090   18.5940   25.8410 O      1680 WAT       0.0504
   1681 WAT         1.9090   18.5940   26.0910 O      1681 WAT       0.0573
   1682 WAT         1.9090   18.5940   26.3410 O      1682 WAT       0.0634
   1683 WAT         1.9090   18.5940   26.5910 O      1683 WAT       0.0648
   1684 WAT         1.9090   18.5940   26.8410 O      1684 WAT       0.0571
   1685 WAT         1.9090   18.5940   29.0910 O      1685 WAT       0.0541
   1686 WAT         1.9090   18.5940   29.3410 O      1686 WAT       0.0728
   1687 WAT         1.9090   18.5940   29.5910 O      1687 WAT       0.0635
   1688 WAT         1.9090   18.8440   25.8410 O      1688 WAT       0.0460
   1689 WAT         1.9090   18.8440   26.0910 O      1689 WAT       0.0503
   1690 WAT         1.9090   18.8440   26.3410 O      1690 WAT       0.0533
   1691 WAT         1.9090   18.8440   26.5910 O      1691 WAT       0.0519
   1692 WAT         1.9090   18.8440   29.0910 O      1692 WAT       0.0881
   1693 WAT         1.9090   18.8440   29.3410 O      1693 WAT       0.1203
   1694 WAT         1.9090   18.8440   29.5910 O      1694 WAT       0.1061
   1695 WAT         1.9090   19.0940   28.8410 O      1695 WAT       0.0563
   1696 WAT         1.9090   19.0940   29.0910 O      1696 WAT       0.1126
   1697 WAT         1.9090   19.0940   29.3410 O      1697 WAT       0.1559
   1698 WAT         1.9090   19.0940   29.5910 O      1698 WAT       0.1383
   1699 WAT         1.9090   19.3440   28.8410 O      1699 WAT       0.0565
   1700 WAT         1.9090   19.3440   29.0910 O      1700 WAT       0.1136
   1701 WAT         1.9090   19.3440   29.3410 O      1701 WAT       0.1581
   1702 WAT         1.9090   19.3440   29.5910 O      1702 WAT       0.1405
   1703 WAT         1.9090   19.5940   19.3410 O      1703 WAT       0.0488
   1704 WAT         1.9090   19.5940   19.5910 O      1704 WAT       0.0624
   1705 WAT         1.9090   19.5940   19.8410 O      1705 WAT       0.0714
   1706 WAT         1.9090   19.5940   20.0910 O      1706 WAT       0.0729
   1707 WAT         1.9090   19.5940   20.3410 O      1707 WAT       0.0671
   1708 WAT         1.9090   19.5940   20.5910 O      1708 WAT       0.0575
   1709 WAT         1.9090   19.5940   20.8410 O      1709 WAT       0.0482
   1710 WAT         1.9090   19.5940   28.8410 O      1710 WAT       0.0459
   1711 WAT         1.9090   19.5940   29.0910 O      1711 WAT       0.0901
   1712 WAT         1.9090   19.5940   29.3410 O      1712 WAT       0.1246
   1713 WAT         1.9090   19.5940   29.5910 O      1713 WAT       0.1103
   1714 WAT         1.9090   19.8440   18.8410 O      1714 WAT       0.0466
   1715 WAT         1.9090   19.8440   19.0910 O      1715 WAT       0.0682
   1716 WAT         1.9090   19.8440   19.3410 O      1716 WAT       0.0946
   1717 WAT         1.9090   19.8440   19.5910 O      1717 WAT       0.1179
   1718 WAT         1.9090   19.8440   19.8410 O      1718 WAT       0.1297
   1719 WAT         1.9090   19.8440   20.0910 O      1719 WAT       0.1266
   1720 WAT         1.9090   19.8440   20.3410 O      1720 WAT       0.1118
   1721 WAT         1.9090   19.8440   20.5910 O      1721 WAT       0.0932
   1722 WAT         1.9090   19.8440   20.8410 O      1722 WAT       0.0775
   1723 WAT         1.9090   19.8440   21.0910 O      1723 WAT       0.0657
   1724 WAT         1.9090   19.8440   21.3410 O      1724 WAT       0.0559
   1725 WAT         1.9090   19.8440   21.5910 O      1725 WAT       0.0466
   1726 WAT         1.9090   19.8440   29.0910 O      1726 WAT       0.0560
   1727 WAT         1.9090   19.8440   29.3410 O      1727 WAT       0.0754
   1728 WAT         1.9090   19.8440   29.5910 O      1728 WAT       0.0659
   1729 WAT         1.9090   20.0940   18.5910 O      1729 WAT       0.0520
   1730 WAT         1.9090   20.0940   18.8410 O      1730 WAT       0.0731
   1731 WAT         1.9090   20.0940   19.0910 O      1731 WAT       0.1037
   1732 WAT         1.9090   20.0940   19.3410 O      1732 WAT       0.1375
   1733 WAT         1.9090   20.0940   19.5910 O      1733 WAT       0.1624
   1734 WAT         1.9090   20.0940   19.8410 O      1734 WAT       0.1683
   1735 WAT         1.9090   20.0940   20.0910 O      1735 WAT       0.1542
   1736 WAT         1.9090   20.0940   20.3410 O      1736 WAT       0.1289
   1737 WAT         1.9090   20.0940   20.5910 O      1737 WAT       0.1036
   1738 WAT         1.9090   20.0940   20.8410 O      1738 WAT       0.0855
   1739 WAT         1.9090   20.0940   21.0910 O      1739 WAT       0.0746
   1740 WAT         1.9090   20.0940   21.3410 O      1740 WAT       0.0666
   1741 WAT         1.9090   20.0940   21.5910 O      1741 WAT       0.0587
   1742 WAT         1.9090   20.0940   21.8410 O      1742 WAT       0.0501
   1743 WAT         1.9090   20.3440   18.0910 O      1743 WAT       0.0460
   1744 WAT         1.9090   20.3440   18.3410 O      1744 WAT       0.0534
   1745 WAT         1.9090   20.3440   18.5910 O      1745 WAT       0.0669
   1746 WAT         1.9090   20.3440   18.8410 O      1746 WAT       0.0895
   1747 WAT         1.9090   20.3440   19.0910 O      1747 WAT       0.1189
   1748 WAT         1.9090   20.3440   19.3410 O      1748 WAT       0.1465
   1749 WAT         1.9090   20.3440   19.5910 O      1749 WAT       0.1605
   1750 WAT         1.9090   20.3440   19.8410 O      1750 WAT       0.1540
   1751 WAT         1.9090   20.3440   20.0910 O      1751 WAT       0.1308
   1752 WAT         1.9090   20.3440   20.3410 O      1752 WAT       0.1019
   1753 WAT         1.9090   20.3440   20.5910 O      1753 WAT       0.0781
   1754 WAT         1.9090   20.3440   20.8410 O      1754 WAT       0.0642
   1755 WAT         1.9090   20.3440   21.0910 O      1755 WAT       0.0583
   1756 WAT         1.9090   20.3440   21.3410 O      1756 WAT       0.0558
   1757 WAT         1.9090   20.3440   21.5910 O      1757 WAT       0.0533
   1758 WAT         1.9090   20.3440   21.8410 O      1758 WAT       0.0489
   1759 WAT         1.9090   20.5940   17.8410 O      1759 WAT       0.0468
   1760 WAT         1.9090   20.5940   18.0910 O      1760 WAT       0.0497
   1761 WAT         1.9090   20.5940   18.3410 O      1761 WAT       0.0551
   1762 WAT         1.9090   20.5940   18.5910 O      1762 WAT       0.0660
   1763 WAT         1.9090   20.5940   18.8410 O      1763 WAT       0.0824
   1764 WAT         1.9090   20.5940   19.0910 O      1764 WAT       0.1002
   1765 WAT         1.9090   20.5940   19.3410 O      1765 WAT       0.1125
   1766 WAT         1.9090   20.5940   19.5910 O      1766 WAT       0.1124
   1767 WAT         1.9090   20.5940   19.8410 O      1767 WAT       0.0985
   1768 WAT         1.9090   20.5940   20.0910 O      1768 WAT       0.0765
   1769 WAT         1.9090   20.5940   20.3410 O      1769 WAT       0.0548
   1770 WAT         1.9090   20.8440   16.3410 O      1770 WAT       0.0452
   1771 WAT         1.9090   20.8440   16.5910 O      1771 WAT       0.0552
   1772 WAT         1.9090   20.8440   16.8410 O      1772 WAT       0.0588
   1773 WAT         1.9090   20.8440   17.0910 O      1773 WAT       0.0569
   1774 WAT         1.9090   20.8440   17.3410 O      1774 WAT       0.0524
   1775 WAT         1.9090   20.8440   17.5910 O      1775 WAT       0.0475
   1776 WAT         1.9090   20.8440   18.5910 O      1776 WAT       0.0476
   1777 WAT         1.9090   20.8440   18.8410 O      1777 WAT       0.0548
   1778 WAT         1.9090   20.8440   19.0910 O      1778 WAT       0.0605
   1779 WAT         1.9090   20.8440   19.3410 O      1779 WAT       0.0612
   1780 WAT         1.9090   20.8440   19.5910 O      1780 WAT       0.0551
   1781 WAT         1.9090   21.0940   15.8410 O      1781 WAT       0.0559
   1782 WAT         1.9090   21.0940   16.0910 O      1782 WAT       0.0842
   1783 WAT         1.9090   21.0940   16.3410 O      1783 WAT       0.1056
   1784 WAT         1.9090   21.0940   16.5910 O      1784 WAT       0.1105
   1785 WAT         1.9090   21.0940   16.8410 O      1785 WAT       0.0981
   1786 WAT         1.9090   21.0940   17.0910 O      1786 WAT       0.0770
   1787 WAT         1.9090   21.0940   17.3410 O      1787 WAT       0.0566
   1788 WAT         1.9090   21.3440   15.5910 O      1788 WAT       0.0801
   1789 WAT         1.9090   21.3440   15.8410 O      1789 WAT       0.1304
   1790 WAT         1.9090   21.3440   16.0910 O      1790 WAT       0.1743
   1791 WAT         1.9090   21.3440   16.3410 O      1791 WAT       0.1911
   1792 WAT         1.9090   21.3440   16.5910 O      1792 WAT       0.1722
   1793 WAT         1.9090   21.3440   16.8410 O      1793 WAT       0.1287
   1794 WAT         1.9090   21.3440   17.0910 O      1794 WAT       0.0825
   1795 WAT         1.9090   21.3440   17.3410 O      1795 WAT       0.0481
   1796 WAT         1.9090   21.3440   23.3410 O      1796 WAT       0.0463
   1797 WAT         1.9090   21.3440   23.5910 O      1797 WAT       0.0503
   1798 WAT         1.9090   21.3440   23.8410 O      1798 WAT       0.0484
   1799 WAT         1.9090   21.3440   25.3410 O      1799 WAT       0.0452
   1800 WAT         1.9090   21.5940   10.5910 O      1800 WAT       0.0502
   1801 WAT         1.9090   21.5940   10.8410 O      1801 WAT       0.0510
   1802 WAT         1.9090   21.5940   11.0910 O      1802 WAT       0.0463
   1803 WAT         1.9090   21.5940   15.3410 O      1803 WAT       0.0884
   1804 WAT         1.9090   21.5940   15.5910 O      1804 WAT       0.1553
   1805 WAT         1.9090   21.5940   15.8410 O      1805 WAT       0.2247
   1806 WAT         1.9090   21.5940   16.0910 O      1806 WAT       0.2645
   1807 WAT         1.9090   21.5940   16.3410 O      1807 WAT       0.2528
   1808 WAT         1.9090   21.5940   16.5910 O      1808 WAT       0.1964
   1809 WAT         1.9090   21.5940   16.8410 O      1809 WAT       0.1245
   1810 WAT         1.9090   21.5940   17.0910 O      1810 WAT       0.0658
   1811 WAT         1.9090   21.5940   23.3410 O      1811 WAT       0.0489
   1812 WAT         1.9090   21.5940   23.5910 O      1812 WAT       0.0589
   1813 WAT         1.9090   21.5940   23.8410 O      1813 WAT       0.0590
   1814 WAT         1.9090   21.5940   24.0910 O      1814 WAT       0.0524
   1815 WAT         1.9090   21.5940   24.3410 O      1815 WAT       0.0454
   1816 WAT         1.9090   21.8440   10.3410 O      1816 WAT       0.0515
   1817 WAT         1.9090   21.8440   10.5910 O      1817 WAT       0.0609
   1818 WAT         1.9090   21.8440   10.8410 O      1818 WAT       0.0635
   1819 WAT         1.9090   21.8440   11.0910 O      1819 WAT       0.0583
   1820 WAT         1.9090   21.8440   11.3410 O      1820 WAT       0.0486
   1821 WAT         1.9090   21.8440   15.0910 O      1821 WAT       0.0769
   1822 WAT         1.9090   21.8440   15.3410 O      1822 WAT       0.1407
   1823 WAT         1.9090   21.8440   15.5910 O      1823 WAT       0.2187
   1824 WAT         1.9090   21.8440   15.8410 O      1824 WAT       0.2781
   1825 WAT         1.9090   21.8440   16.0910 O      1825 WAT       0.2858
   1826 WAT         1.9090   21.8440   16.3410 O      1826 WAT       0.2371
   1827 WAT         1.9090   21.8440   16.5910 O      1827 WAT       0.1585
   1828 WAT         1.9090   21.8440   16.8410 O      1828 WAT       0.0854
   1829 WAT         1.9090   21.8440   23.3410 O      1829 WAT       0.0487
   1830 WAT         1.9090   21.8440   23.5910 O      1830 WAT       0.0645
   1831 WAT         1.9090   21.8440   23.8410 O      1831 WAT       0.0671
   1832 WAT         1.9090   21.8440   24.0910 O      1832 WAT       0.0581
   1833 WAT         1.9090   21.8440   24.3410 O      1833 WAT       0.0466
   1834 WAT         1.9090   22.0940   10.3410 O      1834 WAT       0.0545
   1835 WAT         1.9090   22.0940   10.5910 O      1835 WAT       0.0638
   1836 WAT         1.9090   22.0940   10.8410 O      1836 WAT       0.0666
   1837 WAT         1.9090   22.0940   11.0910 O      1837 WAT       0.0612
   1838 WAT         1.9090   22.0940   11.3410 O      1838 WAT       0.0500
   1839 WAT         1.9090   22.0940   13.0910 O      1839 WAT       0.0452
   1840 WAT         1.9090   22.0940   13.3410 O      1840 WAT       0.0484
   1841 WAT         1.9090   22.0940   13.5910 O      1841 WAT       0.0451
   1842 WAT         1.9090   22.0940   14.8410 O      1842 WAT       0.0578
   1843 WAT         1.9090   22.0940   15.0910 O      1843 WAT       0.1025
   1844 WAT         1.9090   22.0940   15.3410 O      1844 WAT       0.1638
   1845 WAT         1.9090   22.0940   15.5910 O      1845 WAT       0.2213
   1846 WAT         1.9090   22.0940   15.8410 O      1846 WAT       0.2441
   1847 WAT         1.9090   22.0940   16.0910 O      1847 WAT       0.2170
   1848 WAT         1.9090   22.0940   16.3410 O      1848 WAT       0.1551
   1849 WAT         1.9090   22.0940   16.5910 O      1849 WAT       0.0886
   1850 WAT         1.9090   22.0940   23.5910 O      1850 WAT       0.0593
   1851 WAT         1.9090   22.0940   23.8410 O      1851 WAT       0.0635
   1852 WAT         1.9090   22.0940   24.0910 O      1852 WAT       0.0539
   1853 WAT         1.9090   22.3440   10.3410 O      1853 WAT       0.0504
   1854 WAT         1.9090   22.3440   10.5910 O      1854 WAT       0.0566
   1855 WAT         1.9090   22.3440   10.8410 O      1855 WAT       0.0574
   1856 WAT         1.9090   22.3440   11.0910 O      1856 WAT       0.0517
   1857 WAT         1.9090   22.3440   13.0910 O      1857 WAT       0.0477
   1858 WAT         1.9090   22.3440   13.3410 O      1858 WAT       0.0533
   1859 WAT         1.9090   22.3440   13.5910 O      1859 WAT       0.0511
   1860 WAT         1.9090   22.3440   14.8410 O      1860 WAT       0.0664
   1861 WAT         1.9090   22.3440   15.0910 O      1861 WAT       0.1021
   1862 WAT         1.9090   22.3440   15.3410 O      1862 WAT       0.1395
   1863 WAT         1.9090   22.3440   15.5910 O      1863 WAT       0.1608
   1864 WAT         1.9090   22.3440   15.8410 O      1864 WAT       0.1518
   1865 WAT         1.9090   22.3440   16.0910 O      1865 WAT       0.1152
   1866 WAT         1.9090   22.3440   16.3410 O      1866 WAT       0.0699
   1867 WAT         1.9090   22.3440   23.8410 O      1867 WAT       0.0459
   1868 WAT         1.9090   22.5940   13.3410 O      1868 WAT       0.0523
   1869 WAT         1.9090   22.5940   13.5910 O      1869 WAT       0.0514
   1870 WAT         1.9090   22.5940   14.8410 O      1870 WAT       0.0583
   1871 WAT         1.9090   22.5940   15.0910 O      1871 WAT       0.0766
   1872 WAT         1.9090   22.5940   15.3410 O      1872 WAT       0.0876
   1873 WAT         1.9090   22.5940   15.5910 O      1873 WAT       0.0844
   1874 WAT         1.9090   22.5940   15.8410 O      1874 WAT       0.0667
   1875 WAT         1.9090   23.0940    7.8410 O      1875 WAT       0.0474
   1876 WAT         1.9090   23.0940    8.0910 O      1876 WAT       0.0564
   1877 WAT         1.9090   23.0940    8.3410 O      1877 WAT       0.0611
   1878 WAT         1.9090   23.0940    8.5910 O      1878 WAT       0.0571
   1879 WAT         1.9090   23.3440    7.8410 O      1879 WAT       0.0489
   1880 WAT         1.9090   23.3440    8.0910 O      1880 WAT       0.0605
   1881 WAT         1.9090   23.3440    8.3410 O      1881 WAT       0.0693
   1882 WAT         1.9090   23.3440    8.5910 O      1882 WAT       0.0691
   1883 WAT         1.9090   23.3440    8.8410 O      1883 WAT       0.0574
   1884 WAT         1.9090   23.5940    8.0910 O      1884 WAT       0.0498
   1885 WAT         1.9090   23.5940    8.3410 O      1885 WAT       0.0607
   1886 WAT         1.9090   23.5940    8.5910 O      1886 WAT       0.0653
   1887 WAT         1.9090   23.5940    8.8410 O      1887 WAT       0.0589
   1888 WAT         1.9090   23.8440    8.5910 O      1888 WAT       0.0491
   1889 WAT         1.9090   23.8440    8.8410 O      1889 WAT       0.0489
   1890 WAT         1.9090   27.3440   18.3410 O      1890 WAT       0.0586
   1891 WAT         1.9090   27.3440   18.5910 O      1891 WAT       0.0490
   1892 WAT         1.9090   27.5940    5.5910 O      1892 WAT       0.0514
   1893 WAT         1.9090   27.5940    5.8410 O      1893 WAT       0.0496
   1894 WAT         1.9090   27.5940   17.8410 O      1894 WAT       0.0691
   1895 WAT         1.9090   27.5940   18.0910 O      1895 WAT       0.1450
   1896 WAT         1.9090   27.5940   18.3410 O      1896 WAT       0.1918
   1897 WAT         1.9090   27.5940   18.5910 O      1897 WAT       0.1606
   1898 WAT         1.9090   27.5940   18.8410 O      1898 WAT       0.0846
   1899 WAT         1.9090   27.8440    5.5910 O      1899 WAT       0.0555
   1900 WAT         1.9090   27.8440    5.8410 O      1900 WAT       0.0620
   1901 WAT         1.9090   27.8440    6.0910 O      1901 WAT       0.0557
   1902 WAT         1.9090   27.8440   17.8410 O      1902 WAT       0.1457
   1903 WAT         1.9090   27.8440   18.0910 O      1903 WAT       0.3013
   1904 WAT         1.9090   27.8440   18.3410 O      1904 WAT       0.3958
   1905 WAT         1.9090   27.8440   18.5910 O      1905 WAT       0.3298
   1906 WAT         1.9090   27.8440   18.8410 O      1906 WAT       0.1740
   1907 WAT         1.9090   27.8440   19.0910 O      1907 WAT       0.0571
   1908 WAT         1.9090   28.0940    5.5910 O      1908 WAT       0.0512
   1909 WAT         1.9090   28.0940    5.8410 O      1909 WAT       0.0652
   1910 WAT         1.9090   28.0940    6.0910 O      1910 WAT       0.0686
   1911 WAT         1.9090   28.0940    6.3410 O      1911 WAT       0.0597
   1912 WAT         1.9090   28.0940   17.5910 O      1912 WAT       0.0599
   1913 WAT         1.9090   28.0940   17.8410 O      1913 WAT       0.1959
   1914 WAT         1.9090   28.0940   18.0910 O      1914 WAT       0.4022
   1915 WAT         1.9090   28.0940   18.3410 O      1915 WAT       0.5245
   1916 WAT         1.9090   28.0940   18.5910 O      1916 WAT       0.4340
   1917 WAT         1.9090   28.0940   18.8410 O      1917 WAT       0.2276
   1918 WAT         1.9090   28.0940   19.0910 O      1918 WAT       0.0749
   1919 WAT         1.9090   28.3440    5.8410 O      1919 WAT       0.0571
   1920 WAT         1.9090   28.3440    6.0910 O      1920 WAT       0.0697
   1921 WAT         1.9090   28.3440    6.3410 O      1921 WAT       0.0719
   1922 WAT         1.9090   28.3440    6.5910 O      1922 WAT       0.0633
   1923 WAT         1.9090   28.3440    6.8410 O      1923 WAT       0.0493
   1924 WAT         1.9090   28.3440   17.5910 O      1924 WAT       0.0521
   1925 WAT         1.9090   28.3440   17.8410 O      1925 WAT       0.1697
   1926 WAT         1.9090   28.3440   18.0910 O      1926 WAT       0.3454
   1927 WAT         1.9090   28.3440   18.3410 O      1927 WAT       0.4463
   1928 WAT         1.9090   28.3440   18.5910 O      1928 WAT       0.3660
   1929 WAT         1.9090   28.3440   18.8410 O      1929 WAT       0.1901
   1930 WAT         1.9090   28.3440   19.0910 O      1930 WAT       0.0617
   1931 WAT         1.9090   28.5940    6.0910 O      1931 WAT       0.0589
   1932 WAT         1.9090   28.5940    6.3410 O      1932 WAT       0.0700
   1933 WAT         1.9090   28.5940    6.5910 O      1933 WAT       0.0716
   1934 WAT         1.9090   28.5940    6.8410 O      1934 WAT       0.0644
   1935 WAT         1.9090   28.5940    7.0910 O      1935 WAT       0.0528
   1936 WAT         1.9090   28.5940   17.8410 O      1936 WAT       0.0943
   1937 WAT         1.9090   28.5940   18.0910 O      1937 WAT       0.1906
   1938 WAT         1.9090   28.5940   18.3410 O      1938 WAT       0.2435
   1939 WAT         1.9090   28.5940   18.5910 O      1939 WAT       0.1973
   1940 WAT         1.9090   28.5940   18.8410 O      1940 WAT       0.1008
   1941 WAT         1.9090   28.8440    6.3410 O      1941 WAT       0.0553
   1942 WAT         1.9090   28.8440    6.5910 O      1942 WAT       0.0631
   1943 WAT         1.9090   28.8440    6.8410 O      1943 WAT       0.0634
   1944 WAT         1.9090   28.8440    7.0910 O      1944 WAT       0.0579
   1945 WAT         1.9090   28.8440    7.3410 O      1945 WAT       0.0501
   1946 WAT         1.9090   28.8440   18.0910 O      1946 WAT       0.0667
   1947 WAT         1.9090   28.8440   18.3410 O      1947 WAT       0.0843
   1948 WAT         1.9090   28.8440   18.5910 O      1948 WAT       0.0670
   1949 WAT         1.9090   29.0940    6.8410 O      1949 WAT       0.0480
   1950 WAT         1.9090   29.0940    7.0910 O      1950 WAT       0.0477
   1951 WAT         1.9090   29.5940    4.3410 O      1951 WAT       0.0516
   1952 WAT         1.9090   29.5940    4.5910 O      1952 WAT       0.0592
   1953 WAT         1.9090   29.5940    4.8410 O      1953 WAT       0.0591
   1954 WAT         1.9090   29.5940    5.0910 O      1954 WAT       0.0538
   1955 WAT         1.9090   29.5940    5.3410 O      1955 WAT       0.0462
   1956 WAT         1.9090   29.8440    4.0910 O      1956 WAT       0.0529
   1957 WAT         1.9090   29.8440    4.3410 O      1957 WAT       0.0649
   1958 WAT         1.9090   29.8440    4.5910 O      1958 WAT       0.0678
   1959 WAT         1.9090   29.8440    4.8410 O      1959 WAT       0.0616
   1960 WAT         1.9090   29.8440    5.0910 O      1960 WAT       0.0512
   1961 WAT         1.9090   30.0940    3.8410 O      1961 WAT       0.0487
   1962 WAT         1.9090   30.0940    4.0910 O      1962 WAT       0.0597
   1963 WAT         1.9090   30.0940    4.3410 O      1963 WAT       0.0636
   1964 WAT         1.9090   30.0940    4.5910 O      1964 WAT       0.0585
   1965 WAT         1.9090   30.0940    4.8410 O      1965 WAT       0.0472
   1966 WAT         1.9090   30.3440    3.5910 O      1966 WAT       0.0473
   1967 WAT         1.9090   30.3440    3.8410 O      1967 WAT       0.0540
   1968 WAT         1.9090   30.3440    4.0910 O      1968 WAT       0.0540
   1969 WAT         1.9090   30.3440    4.3410 O      1969 WAT       0.0477
   1970 WAT         1.9090   30.3440   14.5910 O      1970 WAT       0.0651
   1971 WAT         1.9090   30.3440   14.8410 O      1971 WAT       0.0807
   1972 WAT         1.9090   30.3440   15.0910 O      1972 WAT       0.0657
   1973 WAT         1.9090   30.5940    3.3410 O      1973 WAT       0.0482
   1974 WAT         1.9090   30.5940    3.5910 O      1974 WAT       0.0539
   1975 WAT         1.9090   30.5940    3.8410 O      1975 WAT       0.0499
   1976 WAT         1.9090   30.5940   14.3410 O      1976 WAT       0.0624
   1977 WAT         1.9090   30.5940   14.5910 O      1977 WAT       0.1171
   1978 WAT         1.9090   30.5940   14.8410 O      1978 WAT       0.1450
   1979 WAT         1.9090   30.5940   15.0910 O      1979 WAT       0.1188
   1980 WAT         1.9090   30.5940   15.3410 O      1980 WAT       0.0644
   1981 WAT         1.9090   30.8440    3.3410 O      1981 WAT       0.0530
   1982 WAT         1.9090   30.8440    3.5910 O      1982 WAT       0.0510
   1983 WAT         1.9090   30.8440   14.3410 O      1983 WAT       0.0925
   1984 WAT         1.9090   30.8440   14.5910 O      1984 WAT       0.1687
   1985 WAT         1.9090   30.8440   14.8410 O      1985 WAT       0.2054
   1986 WAT         1.9090   30.8440   15.0910 O      1986 WAT       0.1666
   1987 WAT         1.9090   30.8440   15.3410 O      1987 WAT       0.0900
   1988 WAT         1.9090   31.0940    3.3410 O      1988 WAT       0.0476
   1989 WAT         1.9090   31.0940   14.3410 O      1989 WAT       0.1098
   1990 WAT         1.9090   31.0940   14.5910 O      1990 WAT       0.1913
   1991 WAT         1.9090   31.0940   14.8410 O      1991 WAT       0.2255
   1992 WAT         1.9090   31.0940   15.0910 O      1992 WAT       0.1788
   1993 WAT         1.9090   31.0940   15.3410 O      1993 WAT       0.0951
   1994 WAT         1.9090   31.3440   14.3410 O      1994 WAT       0.1024
   1995 WAT         1.9090   31.3440   14.5910 O      1995 WAT       0.1687
   1996 WAT         1.9090   31.3440   14.8410 O      1996 WAT       0.1902
   1997 WAT         1.9090   31.3440   15.0910 O      1997 WAT       0.1459
   1998 WAT         1.9090   31.3440   15.3410 O      1998 WAT       0.0757
   1999 WAT         1.9090   31.5940   14.3410 O      1999 WAT       0.0743
   2000 WAT         1.9090   31.5940   14.5910 O      2000 WAT       0.1149
   2001 WAT         1.9090   31.5940   14.8410 O      2001 WAT       0.1230
   2002 WAT         1.9090   31.5940   15.0910 O      2002 WAT       0.0907
   2003 WAT         1.9090   31.5940   15.3410 O      2003 WAT       0.0456
   2004 WAT         1.9090   31.8440   14.5910 O      2004 WAT       0.0602
   2005 WAT         1.9090   31.8440   14.8410 O      2005 WAT       0.0610
   2006 WAT         1.9090   33.5940   28.5910 O      2006 WAT       0.0498
   2007 WAT         1.9090   33.5940   28.8410 O      2007 WAT       0.0507
   2008 WAT         1.9090   33.8440    9.0910 O      2008 WAT       0.0682
   2009 WAT         1.9090   33.8440    9.3410 O      2009 WAT       0.0860
   2010 WAT         1.9090   33.8440    9.5910 O      2010 WAT       0.0828
   2011 WAT         1.9090   33.8440    9.8410 O      2011 WAT       0.0604
   2012 WAT         1.9090   33.8440   28.3410 O      2012 WAT       0.1025
   2013 WAT         1.9090   33.8440   28.5910 O      2013 WAT       0.1656
   2014 WAT         1.9090   33.8440   28.8410 O      2014 WAT       0.1720
   2015 WAT         1.9090   33.8440   29.0910 O      2015 WAT       0.1171
   2016 WAT         1.9090   33.8440   29.3410 O      2016 WAT       0.0530
   2017 WAT         1.9090   34.0940    8.8410 O      2017 WAT       0.0731
   2018 WAT         1.9090   34.0940    9.0910 O      2018 WAT       0.1143
   2019 WAT         1.9090   34.0940    9.3410 O      2019 WAT       0.1369
   2020 WAT         1.9090   34.0940    9.5910 O      2020 WAT       0.1256
   2021 WAT         1.9090   34.0940    9.8410 O      2021 WAT       0.0884
   2022 WAT         1.9090   34.0940   10.0910 O      2022 WAT       0.0480
   2023 WAT         1.9090   34.0940   28.0910 O      2023 WAT       0.0813
   2024 WAT         1.9090   34.0940   28.3410 O      2024 WAT       0.2100
   2025 WAT         1.9090   34.0940   28.5910 O      2025 WAT       0.3433
   2026 WAT         1.9090   34.0940   28.8410 O      2026 WAT       0.3633
   2027 WAT         1.9090   34.0940   29.0910 O      2027 WAT       0.2539
   2028 WAT         1.9090   34.0940   29.3410 O      2028 WAT       0.1196
   2029 WAT         1.9090   34.3440    8.5910 O      2029 WAT       0.0544
   2030 WAT         1.9090   34.3440    8.8410 O      2030 WAT       0.1057
   2031 WAT         1.9090   34.3440    9.0910 O      2031 WAT       0.1551
   2032 WAT         1.9090   34.3440    9.3410 O      2032 WAT       0.1739
   2033 WAT         1.9090   34.3440    9.5910 O      2033 WAT       0.1502
   2034 WAT         1.9090   34.3440    9.8410 O      2034 WAT       0.1006
   2035 WAT         1.9090   34.3440   10.0910 O      2035 WAT       0.0530
   2036 WAT         1.9090   34.3440   28.0910 O      2036 WAT       0.1075
   2037 WAT         1.9090   34.3440   28.3410 O      2037 WAT       0.2783
   2038 WAT         1.9090   34.3440   28.5910 O      2038 WAT       0.4598
   2039 WAT         1.9090   34.3440   28.8410 O      2039 WAT       0.4946
   2040 WAT         1.9090   34.3440   29.0910 O      2040 WAT       0.3532
   2041 WAT         1.9090   34.3440   29.3410 O      2041 WAT       0.1714
   2042 WAT         1.9090   34.3440   29.5910 O      2042 WAT       0.0570
   2043 WAT         1.9090   34.5940    8.5910 O      2043 WAT       0.0677
   2044 WAT         1.9090   34.5940    8.8410 O      2044 WAT       0.1226
   2045 WAT         1.9090   34.5940    9.0910 O      2045 WAT       0.1675
   2046 WAT         1.9090   34.5940    9.3410 O      2046 WAT       0.1746
   2047 WAT         1.9090   34.5940    9.5910 O      2047 WAT       0.1407
   2048 WAT         1.9090   34.5940    9.8410 O      2048 WAT       0.0889
   2049 WAT         1.9090   34.5940   10.0910 O      2049 WAT       0.0454
   2050 WAT         1.9090   34.5940   28.0910 O      2050 WAT       0.0964
   2051 WAT         1.9090   34.5940   28.3410 O      2051 WAT       0.2495
   2052 WAT         1.9090   34.5940   28.5910 O      2052 WAT       0.4140
   2053 WAT         1.9090   34.5940   28.8410 O      2053 WAT       0.4499
   2054 WAT         1.9090   34.5940   29.0910 O      2054 WAT       0.3270
   2055 WAT         1.9090   34.5940   29.3410 O      2055 WAT       0.1628
   2056 WAT         1.9090   34.5940   29.5910 O      2056 WAT       0.0559
   2057 WAT         1.9090   34.8440    8.5910 O      2057 WAT       0.0664
   2058 WAT         1.9090   34.8440    8.8410 O      2058 WAT       0.1111
   2059 WAT         1.9090   34.8440    9.0910 O      2059 WAT       0.1405
   2060 WAT         1.9090   34.8440    9.3410 O      2060 WAT       0.1359
   2061 WAT         1.9090   34.8440    9.5910 O      2061 WAT       0.1020
   2062 WAT         1.9090   34.8440    9.8410 O      2062 WAT       0.0609
   2063 WAT         1.9090   34.8440   28.0910 O      2063 WAT       0.0630
   2064 WAT         1.9090   34.8440   28.3410 O      2064 WAT       0.1623
   2065 WAT         1.9090   34.8440   28.5910 O      2065 WAT       0.2675
   2066 WAT         1.9090   34.8440   28.8410 O      2066 WAT       0.2911
   2067 WAT         1.9090   34.8440   29.0910 O      2067 WAT       0.2138
   2068 WAT         1.9090   34.8440   29.3410 O      2068 WAT       0.1084
   2069 WAT         1.9090   35.0940    8.5910 O      2069 WAT       0.0499
   2070 WAT         1.9090   35.0940    8.8410 O      2070 WAT       0.0764
   2071 WAT         1.9090   35.0940    9.0910 O      2071 WAT       0.0890
   2072 WAT         1.9090   35.0940    9.3410 O      2072 WAT       0.0799
   2073 WAT         1.9090   35.0940    9.5910 O      2073 WAT       0.0561
   2074 WAT         1.9090   35.0940   28.3410 O      2074 WAT       0.0830
   2075 WAT         1.9090   35.0940   28.5910 O      2075 WAT       0.1351
   2076 WAT         1.9090   35.0940   28.8410 O      2076 WAT       0.1456
   2077 WAT         1.9090   35.0940   29.0910 O      2077 WAT       0.1068
   2078 WAT         1.9090   35.0940   29.3410 O      2078 WAT       0.0544
   2079 WAT         1.9090   35.3440   28.5910 O      2079 WAT       0.0552
   2080 WAT         1.9090   35.3440   28.8410 O      2080 WAT       0.0586
   2081 WAT         2.1590   17.3440   26.8410 O      2081 WAT       0.0458
   2082 WAT         2.1590   17.3440   27.0910 O      2082 WAT       0.0458
   2083 WAT         2.1590   17.5940   26.5910 O      2083 WAT       0.0477
   2084 WAT         2.1590   17.5940   26.8410 O      2084 WAT       0.0501
   2085 WAT         2.1590   17.5940   27.0910 O      2085 WAT       0.0487
   2086 WAT         2.1590   17.8440   26.3410 O      2086 WAT       0.0486
   2087 WAT         2.1590   17.8440   26.5910 O      2087 WAT       0.0524
   2088 WAT         2.1590   17.8440   26.8410 O      2088 WAT       0.0529
   2089 WAT         2.1590   17.8440   27.0910 O      2089 WAT       0.0477
   2090 WAT         2.1590   18.0940   26.0910 O      2090 WAT       0.0492
   2091 WAT         2.1590   18.0940   26.3410 O      2091 WAT       0.0543
   2092 WAT         2.1590   18.0940   26.5910 O      2092 WAT       0.0570
   2093 WAT         2.1590   18.0940   26.8410 O      2093 WAT       0.0537
   2094 WAT         2.1590   18.3440   25.8410 O      2094 WAT       0.0480
   2095 WAT         2.1590   18.3440   26.0910 O      2095 WAT       0.0532
   2096 WAT         2.1590   18.3440   26.3410 O      2096 WAT       0.0576
   2097 WAT         2.1590   18.3440   26.5910 O      2097 WAT       0.0581
   2098 WAT         2.1590   18.3440   26.8410 O      2098 WAT       0.0510
   2099 WAT         2.1590   18.3440   29.0910 O      2099 WAT       0.0524
   2100 WAT         2.1590   18.3440   29.3410 O      2100 WAT       0.0686
   2101 WAT         2.1590   18.3440   29.5910 O      2101 WAT       0.0590
   2102 WAT         2.1590   18.5940   13.5910 O      2102 WAT       0.0454
   2103 WAT         2.1590   18.5940   25.8410 O      2103 WAT       0.0479
   2104 WAT         2.1590   18.5940   26.0910 O      2104 WAT       0.0516
   2105 WAT         2.1590   18.5940   26.3410 O      2105 WAT       0.0540
   2106 WAT         2.1590   18.5940   26.5910 O      2106 WAT       0.0521
   2107 WAT         2.1590   18.5940   28.8410 O      2107 WAT       0.0553
   2108 WAT         2.1590   18.5940   29.0910 O      2108 WAT       0.1048
   2109 WAT         2.1590   18.5940   29.3410 O      2109 WAT       0.1407
   2110 WAT         2.1590   18.5940   29.5910 O      2110 WAT       0.1231
   2111 WAT         2.1590   18.8440   28.8410 O      2111 WAT       0.0787
   2112 WAT         2.1590   18.8440   29.0910 O      2112 WAT       0.1551
   2113 WAT         2.1590   18.8440   29.3410 O      2113 WAT       0.2132
   2114 WAT         2.1590   18.8440   29.5910 O      2114 WAT       0.1890
   2115 WAT         2.1590   19.0940   28.8410 O      2115 WAT       0.0838
   2116 WAT         2.1590   19.0940   29.0910 O      2116 WAT       0.1707
   2117 WAT         2.1590   19.0940   29.3410 O      2117 WAT       0.2392
   2118 WAT         2.1590   19.0940   29.5910 O      2118 WAT       0.2142
   2119 WAT         2.1590   19.3440   19.5910 O      2119 WAT       0.0452
   2120 WAT         2.1590   19.3440   19.8410 O      2120 WAT       0.0527
   2121 WAT         2.1590   19.3440   20.0910 O      2121 WAT       0.0558
   2122 WAT         2.1590   19.3440   20.3410 O      2122 WAT       0.0535
   2123 WAT         2.1590   19.3440   20.5910 O      2123 WAT       0.0473
   2124 WAT         2.1590   19.3440   28.8410 O      2124 WAT       0.0686
   2125 WAT         2.1590   19.3440   29.0910 O      2125 WAT       0.1426
   2126 WAT         2.1590   19.3440   29.3410 O      2126 WAT       0.2023
   2127 WAT         2.1590   19.3440   29.5910 O      2127 WAT       0.1823
   2128 WAT         2.1590   19.5940   14.3410 O      2128 WAT       0.0455
   2129 WAT         2.1590   19.5940   19.0910 O      2129 WAT       0.0557
   2130 WAT         2.1590   19.5940   19.3410 O      2130 WAT       0.0769
   2131 WAT         2.1590   19.5940   19.5910 O      2131 WAT       0.0992
   2132 WAT         2.1590   19.5940   19.8410 O      2132 WAT       0.1156
   2133 WAT         2.1590   19.5940   20.0910 O      2133 WAT       0.1210
   2134 WAT         2.1590   19.5940   20.3410 O      2134 WAT       0.1143
   2135 WAT         2.1590   19.5940   20.5910 O      2135 WAT       0.0995
   2136 WAT         2.1590   19.5940   20.8410 O      2136 WAT       0.0827
   2137 WAT         2.1590   19.5940   21.0910 O      2137 WAT       0.0670
   2138 WAT         2.1590   19.5940   21.3410 O      2138 WAT       0.0530
   2139 WAT         2.1590   19.5940   24.3410 O      2139 WAT       0.0453
   2140 WAT         2.1590   19.5940   29.0910 O      2140 WAT       0.0924
   2141 WAT         2.1590   19.5940   29.3410 O      2141 WAT       0.1314
   2142 WAT         2.1590   19.5940   29.5910 O      2142 WAT       0.1183
   2143 WAT         2.1590   19.8440   18.5910 O      2143 WAT       0.0479
   2144 WAT         2.1590   19.8440   18.8410 O      2144 WAT       0.0658
   2145 WAT         2.1590   19.8440   19.0910 O      2145 WAT       0.0940
   2146 WAT         2.1590   19.8440   19.3410 O      2146 WAT       0.1303
   2147 WAT         2.1590   19.8440   19.5910 O      2147 WAT       0.1650
   2148 WAT         2.1590   19.8440   19.8410 O      2148 WAT       0.1863
   2149 WAT         2.1590   19.8440   20.0910 O      2149 WAT       0.1875
   2150 WAT         2.1590   19.8440   20.3410 O      2150 WAT       0.1708
   2151 WAT         2.1590   19.8440   20.5910 O      2151 WAT       0.1454
   2152 WAT         2.1590   19.8440   20.8410 O      2152 WAT       0.1203
   2153 WAT         2.1590   19.8440   21.0910 O      2153 WAT       0.0993
   2154 WAT         2.1590   19.8440   21.3410 O      2154 WAT       0.0818
   2155 WAT         2.1590   19.8440   21.5910 O      2155 WAT       0.0663
   2156 WAT         2.1590   19.8440   21.8410 O      2156 WAT       0.0529
   2157 WAT         2.1590   19.8440   29.0910 O      2157 WAT       0.0468
   2158 WAT         2.1590   19.8440   29.3410 O      2158 WAT       0.0658
   2159 WAT         2.1590   19.8440   29.5910 O      2159 WAT       0.0589
   2160 WAT         2.1590   20.0940   18.0910 O      2160 WAT       0.0460
   2161 WAT         2.1590   20.0940   18.3410 O      2161 WAT       0.0538
   2162 WAT         2.1590   20.0940   18.5910 O      2162 WAT       0.0668
   2163 WAT         2.1590   20.0940   18.8410 O      2163 WAT       0.0905
   2164 WAT         2.1590   20.0940   19.0910 O      2164 WAT       0.1263
   2165 WAT         2.1590   20.0940   19.3410 O      2165 WAT       0.1682
   2166 WAT         2.1590   20.0940   19.5910 O      2166 WAT       0.2026
   2167 WAT         2.1590   20.0940   19.8410 O      2167 WAT       0.2158
   2168 WAT         2.1590   20.0940   20.0910 O      2168 WAT       0.2043
   2169 WAT         2.1590   20.0940   20.3410 O      2169 WAT       0.1764
   2170 WAT         2.1590   20.0940   20.5910 O      2170 WAT       0.1450
   2171 WAT         2.1590   20.0940   20.8410 O      2171 WAT       0.1195
   2172 WAT         2.1590   20.0940   21.0910 O      2172 WAT       0.1017
   2173 WAT         2.1590   20.0940   21.3410 O      2173 WAT       0.0889
   2174 WAT         2.1590   20.0940   21.5910 O      2174 WAT       0.0778
   2175 WAT         2.1590   20.0940   21.8410 O      2175 WAT       0.0665
   2176 WAT         2.1590   20.0940   22.0910 O      2176 WAT       0.0543
   2177 WAT         2.1590   20.3440   17.8410 O      2177 WAT       0.0503
   2178 WAT         2.1590   20.3440   18.0910 O      2178 WAT       0.0578
   2179 WAT         2.1590   20.3440   18.3410 O      2179 WAT       0.0653
   2180 WAT         2.1590   20.3440   18.5910 O      2180 WAT       0.0778
   2181 WAT         2.1590   20.3440   18.8410 O      2181 WAT       0.0998
   2182 WAT         2.1590   20.3440   19.0910 O      2182 WAT       0.1302
   2183 WAT         2.1590   20.3440   19.3410 O      2183 WAT       0.1611
   2184 WAT         2.1590   20.3440   19.5910 O      2184 WAT       0.1796
   2185 WAT         2.1590   20.3440   19.8410 O      2185 WAT       0.1768
   2186 WAT         2.1590   20.3440   20.0910 O      2186 WAT       0.1549
   2187 WAT         2.1590   20.3440   20.3410 O      2187 WAT       0.1248
   2188 WAT         2.1590   20.3440   20.5910 O      2188 WAT       0.0978
   2189 WAT         2.1590   20.3440   20.8410 O      2189 WAT       0.0800
   2190 WAT         2.1590   20.3440   21.0910 O      2190 WAT       0.0709
   2191 WAT         2.1590   20.3440   21.3410 O      2191 WAT       0.0669
   2192 WAT         2.1590   20.3440   21.5910 O      2192 WAT       0.0642
   2193 WAT         2.1590   20.3440   21.8410 O      2193 WAT       0.0602
   2194 WAT         2.1590   20.3440   22.0910 O      2194 WAT       0.0534
   2195 WAT         2.1590   20.3440   22.3410 O      2195 WAT       0.0452
   2196 WAT         2.1590   20.5940   17.5910 O      2196 WAT       0.0488
   2197 WAT         2.1590   20.5940   17.8410 O      2197 WAT       0.0556
   2198 WAT         2.1590   20.5940   18.0910 O      2198 WAT       0.0600
   2199 WAT         2.1590   20.5940   18.3410 O      2199 WAT       0.0642
   2200 WAT         2.1590   20.5940   18.5910 O      2200 WAT       0.0719
   2201 WAT         2.1590   20.5940   18.8410 O      2201 WAT       0.0849
   2202 WAT         2.1590   20.5940   19.0910 O      2202 WAT       0.1005
   2203 WAT         2.1590   20.5940   19.3410 O      2203 WAT       0.1124
   2204 WAT         2.1590   20.5940   19.5910 O      2204 WAT       0.1135
   2205 WAT         2.1590   20.5940   19.8410 O      2205 WAT       0.1015
   2206 WAT         2.1590   20.5940   20.0910 O      2206 WAT       0.0810
   2207 WAT         2.1590   20.5940   20.3410 O      2207 WAT       0.0599
   2208 WAT         2.1590   20.8440   13.3410 O      2208 WAT       0.0467
   2209 WAT         2.1590   20.8440   17.0910 O      2209 WAT       0.0461
   2210 WAT         2.1590   20.8440   17.3410 O      2210 WAT       0.0483
   2211 WAT         2.1590   20.8440   17.5910 O      2211 WAT       0.0499
   2212 WAT         2.1590   20.8440   17.8410 O      2212 WAT       0.0500
   2213 WAT         2.1590   20.8440   18.0910 O      2213 WAT       0.0489
   2214 WAT         2.1590   20.8440   18.3410 O      2214 WAT       0.0483
   2215 WAT         2.1590   20.8440   18.5910 O      2215 WAT       0.0499
   2216 WAT         2.1590   20.8440   18.8410 O      2216 WAT       0.0535
   2217 WAT         2.1590   20.8440   19.0910 O      2217 WAT       0.0566
   2218 WAT         2.1590   20.8440   19.3410 O      2218 WAT       0.0562
   2219 WAT         2.1590   20.8440   19.5910 O      2219 WAT       0.0506
   2220 WAT         2.1590   20.8440   23.5910 O      2220 WAT       0.0466
   2221 WAT         2.1590   20.8440   23.8410 O      2221 WAT       0.0470
   2222 WAT         2.1590   21.0940   13.0910 O      2222 WAT       0.0492
   2223 WAT         2.1590   21.0940   13.3410 O      2223 WAT       0.0492
   2224 WAT         2.1590   21.0940   16.0910 O      2224 WAT       0.0519
   2225 WAT         2.1590   21.0940   16.3410 O      2225 WAT       0.0659
   2226 WAT         2.1590   21.0940   16.5910 O      2226 WAT       0.0717
   2227 WAT         2.1590   21.0940   16.8410 O      2227 WAT       0.0680
   2228 WAT         2.1590   21.0940   17.0910 O      2228 WAT       0.0589
   2229 WAT         2.1590   21.0940   17.3410 O      2229 WAT       0.0494
   2230 WAT         2.1590   21.0940   23.3410 O      2230 WAT       0.0500
   2231 WAT         2.1590   21.0940   23.5910 O      2231 WAT       0.0551
   2232 WAT         2.1590   21.0940   23.8410 O      2232 WAT       0.0554
   2233 WAT         2.1590   21.0940   24.0910 O      2233 WAT       0.0515
   2234 WAT         2.1590   21.3440   12.8410 O      2234 WAT       0.0482
   2235 WAT         2.1590   21.3440   13.0910 O      2235 WAT       0.0522
   2236 WAT         2.1590   21.3440   13.3410 O      2236 WAT       0.0507
   2237 WAT         2.1590   21.3440   15.5910 O      2237 WAT       0.0490
   2238 WAT         2.1590   21.3440   15.8410 O      2238 WAT       0.0778
   2239 WAT         2.1590   21.3440   16.0910 O      2239 WAT       0.1029
   2240 WAT         2.1590   21.3440   16.3410 O      2240 WAT       0.1138
   2241 WAT         2.1590   21.3440   16.5910 O      2241 WAT       0.1062
   2242 WAT         2.1590   21.3440   16.8410 O      2242 WAT       0.0845
   2243 WAT         2.1590   21.3440   17.0910 O      2243 WAT       0.0596
   2244 WAT         2.1590   21.3440   23.3410 O      2244 WAT       0.0561
   2245 WAT         2.1590   21.3440   23.5910 O      2245 WAT       0.0671
   2246 WAT         2.1590   21.3440   23.8410 O      2246 WAT       0.0691
   2247 WAT         2.1590   21.3440   24.0910 O      2247 WAT       0.0632
   2248 WAT         2.1590   21.3440   24.3410 O      2248 WAT       0.0537
   2249 WAT         2.1590   21.5940   10.3410 O      2249 WAT       0.0493
   2250 WAT         2.1590   21.5940   10.5910 O      2250 WAT       0.0572
   2251 WAT         2.1590   21.5940   10.8410 O      2251 WAT       0.0580
   2252 WAT         2.1590   21.5940   11.0910 O      2252 WAT       0.0520
   2253 WAT         2.1590   21.5940   12.8410 O      2253 WAT       0.0500
   2254 WAT         2.1590   21.5940   13.0910 O      2254 WAT       0.0539
   2255 WAT         2.1590   21.5940   13.3410 O      2255 WAT       0.0522
   2256 WAT         2.1590   21.5940   15.3410 O      2256 WAT       0.0543
   2257 WAT         2.1590   21.5940   15.5910 O      2257 WAT       0.0915
   2258 WAT         2.1590   21.5940   15.8410 O      2258 WAT       0.1288
   2259 WAT         2.1590   21.5940   16.0910 O      2259 WAT       0.1495
   2260 WAT         2.1590   21.5940   16.3410 O      2260 WAT       0.1435
   2261 WAT         2.1590   21.5940   16.5910 O      2261 WAT       0.1148
   2262 WAT         2.1590   21.5940   16.8410 O      2262 WAT       0.0770
   2263 WAT         2.1590   21.5940   23.3410 O      2263 WAT       0.0634
   2264 WAT         2.1590   21.5940   23.5910 O      2264 WAT       0.0827
   2265 WAT         2.1590   21.5940   23.8410 O      2265 WAT       0.0875
   2266 WAT         2.1590   21.5940   24.0910 O      2266 WAT       0.0784
   2267 WAT         2.1590   21.5940   24.3410 O      2267 WAT       0.0637
   2268 WAT         2.1590   21.5940   24.5910 O      2268 WAT       0.0514
   2269 WAT         2.1590   21.8440   10.3410 O      2269 WAT       0.0538
   2270 WAT         2.1590   21.8440   10.5910 O      2270 WAT       0.0641
   2271 WAT         2.1590   21.8440   10.8410 O      2271 WAT       0.0669
   2272 WAT         2.1590   21.8440   11.0910 O      2272 WAT       0.0610
   2273 WAT         2.1590   21.8440   11.3410 O      2273 WAT       0.0503
   2274 WAT         2.1590   21.8440   12.8410 O      2274 WAT       0.0485
   2275 WAT         2.1590   21.8440   13.0910 O      2275 WAT       0.0540
   2276 WAT         2.1590   21.8440   13.3410 O      2276 WAT       0.0536
   2277 WAT         2.1590   21.8440   13.5910 O      2277 WAT       0.0464
   2278 WAT         2.1590   21.8440   15.0910 O      2278 WAT       0.0474
   2279 WAT         2.1590   21.8440   15.3410 O      2279 WAT       0.0827
   2280 WAT         2.1590   21.8440   15.5910 O      2280 WAT       0.1237
   2281 WAT         2.1590   21.8440   15.8410 O      2281 WAT       0.1529
   2282 WAT         2.1590   21.8440   16.0910 O      2282 WAT       0.1546
   2283 WAT         2.1590   21.8440   16.3410 O      2283 WAT       0.1281
   2284 WAT         2.1590   21.8440   16.5910 O      2284 WAT       0.0875
   2285 WAT         2.1590   21.8440   16.8410 O      2285 WAT       0.0494
   2286 WAT         2.1590   21.8440   23.3410 O      2286 WAT       0.0676
   2287 WAT         2.1590   21.8440   23.5910 O      2287 WAT       0.0946
   2288 WAT         2.1590   21.8440   23.8410 O      2288 WAT       0.1021
   2289 WAT         2.1590   21.8440   24.0910 O      2289 WAT       0.0890
   2290 WAT         2.1590   21.8440   24.3410 O      2290 WAT       0.0681
   2291 WAT         2.1590   21.8440   24.5910 O      2291 WAT       0.0510
   2292 WAT         2.1590   22.0940   10.3410 O      2292 WAT       0.0519
   2293 WAT         2.1590   22.0940   10.5910 O      2293 WAT       0.0609
   2294 WAT         2.1590   22.0940   10.8410 O      2294 WAT       0.0635
   2295 WAT         2.1590   22.0940   11.0910 O      2295 WAT       0.0580
   2296 WAT         2.1590   22.0940   11.3410 O      2296 WAT       0.0472
   2297 WAT         2.1590   22.0940   13.0910 O      2297 WAT       0.0520
   2298 WAT         2.1590   22.0940   13.3410 O      2298 WAT       0.0541
   2299 WAT         2.1590   22.0940   13.5910 O      2299 WAT       0.0483
   2300 WAT         2.1590   22.0940   15.0910 O      2300 WAT       0.0600
   2301 WAT         2.1590   22.0940   15.3410 O      2301 WAT       0.0919
   2302 WAT         2.1590   22.0940   15.5910 O      2302 WAT       0.1199
   2303 WAT         2.1590   22.0940   15.8410 O      2303 WAT       0.1285
   2304 WAT         2.1590   22.0940   16.0910 O      2304 WAT       0.1120
   2305 WAT         2.1590   22.0940   16.3410 O      2305 WAT       0.0794
   2306 WAT         2.1590   22.0940   16.5910 O      2306 WAT       0.0458
   2307 WAT         2.1590   22.0940   23.3410 O      2307 WAT       0.0609
   2308 WAT         2.1590   22.0940   23.5910 O      2308 WAT       0.0896
   2309 WAT         2.1590   22.0940   23.8410 O      2309 WAT       0.0983
   2310 WAT         2.1590   22.0940   24.0910 O      2310 WAT       0.0840
   2311 WAT         2.1590   22.0940   24.3410 O      2311 WAT       0.0605
   2312 WAT         2.1590   22.3440   10.5910 O      2312 WAT       0.0479
   2313 WAT         2.1590   22.3440   10.8410 O      2313 WAT       0.0484
   2314 WAT         2.1590   22.3440   13.0910 O      2314 WAT       0.0472
   2315 WAT         2.1590   22.3440   13.3410 O      2315 WAT       0.0517
   2316 WAT         2.1590   22.3440   13.5910 O      2316 WAT       0.0476
   2317 WAT         2.1590   22.3440   15.0910 O      2317 WAT       0.0567
   2318 WAT         2.1590   22.3440   15.3410 O      2318 WAT       0.0746
   2319 WAT         2.1590   22.3440   15.5910 O      2319 WAT       0.0832
   2320 WAT         2.1590   22.3440   15.8410 O      2320 WAT       0.0761
   2321 WAT         2.1590   22.3440   16.0910 O      2321 WAT       0.0563
   2322 WAT         2.1590   22.3440   23.5910 O      2322 WAT       0.0640
   2323 WAT         2.1590   22.3440   23.8410 O      2323 WAT       0.0719
   2324 WAT         2.1590   22.3440   24.0910 O      2324 WAT       0.0612
   2325 WAT         2.1590   22.8440    7.5910 O      2325 WAT       0.0461
   2326 WAT         2.1590   22.8440    7.8410 O      2326 WAT       0.0593
   2327 WAT         2.1590   22.8440    8.0910 O      2327 WAT       0.0713
   2328 WAT         2.1590   22.8440    8.3410 O      2328 WAT       0.0757
   2329 WAT         2.1590   22.8440    8.5910 O      2329 WAT       0.0681
   2330 WAT         2.1590   22.8440    8.8410 O      2330 WAT       0.0505
   2331 WAT         2.1590   23.0940    7.5910 O      2331 WAT       0.0522
   2332 WAT         2.1590   23.0940    7.8410 O      2332 WAT       0.0685
   2333 WAT         2.1590   23.0940    8.0910 O      2333 WAT       0.0855
   2334 WAT         2.1590   23.0940    8.3410 O      2334 WAT       0.0955
   2335 WAT         2.1590   23.0940    8.5910 O      2335 WAT       0.0904
   2336 WAT         2.1590   23.0940    8.8410 O      2336 WAT       0.0698
   2337 WAT         2.1590   23.3440    7.8410 O      2337 WAT       0.0578
   2338 WAT         2.1590   23.3440    8.0910 O      2338 WAT       0.0753
   2339 WAT         2.1590   23.3440    8.3410 O      2339 WAT       0.0891
   2340 WAT         2.1590   23.3440    8.5910 O      2340 WAT       0.0898
   2341 WAT         2.1590   23.3440    8.8410 O      2341 WAT       0.0737
   2342 WAT         2.1590   23.3440    9.0910 O      2342 WAT       0.0476
   2343 WAT         2.1590   23.5940    8.0910 O      2343 WAT       0.0491
   2344 WAT         2.1590   23.5940    8.3410 O      2344 WAT       0.0620
   2345 WAT         2.1590   23.5940    8.5910 O      2345 WAT       0.0673
   2346 WAT         2.1590   23.5940    8.8410 O      2346 WAT       0.0595
   2347 WAT         2.1590   26.0940    3.5910 O      2347 WAT       0.0457
   2348 WAT         2.1590   26.3440    3.5910 O      2348 WAT       0.0466
   2349 WAT         2.1590   26.5940    3.5910 O      2349 WAT       0.0459
   2350 WAT         2.1590   26.8440    3.5910 O      2350 WAT       0.0450
   2351 WAT         2.1590   27.5940   18.0910 O      2351 WAT       0.0745
   2352 WAT         2.1590   27.5940   18.3410 O      2352 WAT       0.1062
   2353 WAT         2.1590   27.5940   18.5910 O      2353 WAT       0.0957
   2354 WAT         2.1590   27.5940   18.8410 O      2354 WAT       0.0543
   2355 WAT         2.1590   27.8440   17.8410 O      2355 WAT       0.0724
   2356 WAT         2.1590   27.8440   18.0910 O      2356 WAT       0.1622
   2357 WAT         2.1590   27.8440   18.3410 O      2357 WAT       0.2299
   2358 WAT         2.1590   27.8440   18.5910 O      2358 WAT       0.2072
   2359 WAT         2.1590   27.8440   18.8410 O      2359 WAT       0.1187
   2360 WAT         2.1590   28.0940   17.8410 O      2360 WAT       0.1008
   2361 WAT         2.1590   28.0940   18.0910 O      2361 WAT       0.2241
   2362 WAT         2.1590   28.0940   18.3410 O      2362 WAT       0.3163
   2363 WAT         2.1590   28.0940   18.5910 O      2363 WAT       0.2842
   2364 WAT         2.1590   28.0940   18.8410 O      2364 WAT       0.1624
   2365 WAT         2.1590   28.0940   19.0910 O      2365 WAT       0.0584
   2366 WAT         2.1590   28.3440   17.8410 O      2366 WAT       0.0893
   2367 WAT         2.1590   28.3440   18.0910 O      2367 WAT       0.1975
   2368 WAT         2.1590   28.3440   18.3410 O      2368 WAT       0.2771
   2369 WAT         2.1590   28.3440   18.5910 O      2369 WAT       0.2474
   2370 WAT         2.1590   28.3440   18.8410 O      2370 WAT       0.1403
   2371 WAT         2.1590   28.3440   19.0910 O      2371 WAT       0.0499
   2372 WAT         2.1590   28.5940   17.8410 O      2372 WAT       0.0499
   2373 WAT         2.1590   28.5940   18.0910 O      2373 WAT       0.1108
   2374 WAT         2.1590   28.5940   18.3410 O      2374 WAT       0.1543
   2375 WAT         2.1590   28.5940   18.5910 O      2375 WAT       0.1362
   2376 WAT         2.1590   28.5940   18.8410 O      2376 WAT       0.0761
   2377 WAT         2.1590   28.8440   18.3410 O      2377 WAT       0.0537
   2378 WAT         2.1590   28.8440   18.5910 O      2378 WAT       0.0467
   2379 WAT         2.1590   29.3440    4.3410 O      2379 WAT       0.0463
   2380 WAT         2.1590   29.3440    4.5910 O      2380 WAT       0.0557
   2381 WAT         2.1590   29.3440    4.8410 O      2381 WAT       0.0588
   2382 WAT         2.1590   29.3440    5.0910 O      2382 WAT       0.0563
   2383 WAT         2.1590   29.3440    5.3410 O      2383 WAT       0.0503
   2384 WAT         2.1590   29.5940    4.0910 O      2384 WAT       0.0526
   2385 WAT         2.1590   29.5940    4.3410 O      2385 WAT       0.0722
   2386 WAT         2.1590   29.5940    4.5910 O      2386 WAT       0.0836
   2387 WAT         2.1590   29.5940    4.8410 O      2387 WAT       0.0839
   2388 WAT         2.1590   29.5940    5.0910 O      2388 WAT       0.0762
   2389 WAT         2.1590   29.5940    5.3410 O      2389 WAT       0.0648
   2390 WAT         2.1590   29.5940    5.5910 O      2390 WAT       0.0520
   2391 WAT         2.1590   29.8440    3.8410 O      2391 WAT       0.0485
   2392 WAT         2.1590   29.8440    4.0910 O      2392 WAT       0.0716
   2393 WAT         2.1590   29.8440    4.3410 O      2393 WAT       0.0905
   2394 WAT         2.1590   29.8440    4.5910 O      2394 WAT       0.0970
   2395 WAT         2.1590   29.8440    4.8410 O      2395 WAT       0.0900
   2396 WAT         2.1590   29.8440    5.0910 O      2396 WAT       0.0758
   2397 WAT         2.1590   29.8440    5.3410 O      2397 WAT       0.0604
   2398 WAT         2.1590   29.8440    5.5910 O      2398 WAT       0.0465
   2399 WAT         2.1590   30.0940    3.8410 O      2399 WAT       0.0605
   2400 WAT         2.1590   30.0940    4.0910 O      2400 WAT       0.0774
   2401 WAT         2.1590   30.0940    4.3410 O      2401 WAT       0.0865
   2402 WAT         2.1590   30.0940    4.5910 O      2402 WAT       0.0832
   2403 WAT         2.1590   30.0940    4.8410 O      2403 WAT       0.0699
   2404 WAT         2.1590   30.0940    5.0910 O      2404 WAT       0.0535
   2405 WAT         2.1590   30.3440    3.5910 O      2405 WAT       0.0521
   2406 WAT         2.1590   30.3440    3.8410 O      2406 WAT       0.0616
   2407 WAT         2.1590   30.3440    4.0910 O      2407 WAT       0.0652
   2408 WAT         2.1590   30.3440    4.3410 O      2408 WAT       0.0617
   2409 WAT         2.1590   30.3440    4.5910 O      2409 WAT       0.0518
   2410 WAT         2.1590   30.3440   14.8410 O      2410 WAT       0.0502
   2411 WAT         2.1590   30.5940    3.3410 O      2411 WAT       0.0476
   2412 WAT         2.1590   30.5940    3.5910 O      2412 WAT       0.0535
   2413 WAT         2.1590   30.5940    3.8410 O      2413 WAT       0.0512
   2414 WAT         2.1590   30.5940   14.5910 O      2414 WAT       0.0754
   2415 WAT         2.1590   30.5940   14.8410 O      2415 WAT       0.0998
   2416 WAT         2.1590   30.5940   15.0910 O      2416 WAT       0.0862
   2417 WAT         2.1590   30.5940   15.3410 O      2417 WAT       0.0487
   2418 WAT         2.1590   30.8440    3.3410 O      2418 WAT       0.0474
   2419 WAT         2.1590   30.8440    3.5910 O      2419 WAT       0.0452
   2420 WAT         2.1590   30.8440   14.3410 O      2420 WAT       0.0581
   2421 WAT         2.1590   30.8440   14.5910 O      2421 WAT       0.1158
   2422 WAT         2.1590   30.8440   14.8410 O      2422 WAT       0.1513
   2423 WAT         2.1590   30.8440   15.0910 O      2423 WAT       0.1299
   2424 WAT         2.1590   30.8440   15.3410 O      2424 WAT       0.0734
   2425 WAT         2.1590   31.0940   14.3410 O      2425 WAT       0.0705
   2426 WAT         2.1590   31.0940   14.5910 O      2426 WAT       0.1354
   2427 WAT         2.1590   31.0940   14.8410 O      2427 WAT       0.1725
   2428 WAT         2.1590   31.0940   15.0910 O      2428 WAT       0.1456
   2429 WAT         2.1590   31.0940   15.3410 O      2429 WAT       0.0814
   2430 WAT         2.1590   31.3440   14.3410 O      2430 WAT       0.0652
   2431 WAT         2.1590   31.3440   14.5910 O      2431 WAT       0.1194
   2432 WAT         2.1590   31.3440   14.8410 O      2432 WAT       0.1469
   2433 WAT         2.1590   31.3440   15.0910 O      2433 WAT       0.1209
   2434 WAT         2.1590   31.3440   15.3410 O      2434 WAT       0.0664
   2435 WAT         2.1590   31.5940   14.3410 O      2435 WAT       0.0454
   2436 WAT         2.1590   31.5940   14.5910 O      2436 WAT       0.0791
   2437 WAT         2.1590   31.5940   14.8410 O      2437 WAT       0.0934
   2438 WAT         2.1590   31.5940   15.0910 O      2438 WAT       0.0745
   2439 WAT         2.1590   33.8440   28.3410 O      2439 WAT       0.0580
   2440 WAT         2.1590   33.8440   28.5910 O      2440 WAT       0.0944
   2441 WAT         2.1590   33.8440   28.8410 O      2441 WAT       0.0981
   2442 WAT         2.1590   33.8440   29.0910 O      2442 WAT       0.0665
   2443 WAT         2.1590   34.0940    9.3410 O      2443 WAT       0.0550
   2444 WAT         2.1590   34.0940    9.5910 O      2444 WAT       0.0509
   2445 WAT         2.1590   34.0940   28.0910 O      2445 WAT       0.0452
   2446 WAT         2.1590   34.0940   28.3410 O      2446 WAT       0.1186
   2447 WAT         2.1590   34.0940   28.5910 O      2447 WAT       0.1946
   2448 WAT         2.1590   34.0940   28.8410 O      2448 WAT       0.2060
   2449 WAT         2.1590   34.0940   29.0910 O      2449 WAT       0.1435
   2450 WAT         2.1590   34.0940   29.3410 O      2450 WAT       0.0668
   2451 WAT         2.1590   34.3440    8.8410 O      2451 WAT       0.0474
   2452 WAT         2.1590   34.3440    9.0910 O      2452 WAT       0.0709
   2453 WAT         2.1590   34.3440    9.3410 O      2453 WAT       0.0801
   2454 WAT         2.1590   34.3440    9.5910 O      2454 WAT       0.0687
   2455 WAT         2.1590   34.3440    9.8410 O      2455 WAT       0.0450
   2456 WAT         2.1590   34.3440   28.0910 O      2456 WAT       0.0594
   2457 WAT         2.1590   34.3440   28.3410 O      2457 WAT       0.1559
   2458 WAT         2.1590   34.3440   28.5910 O      2458 WAT       0.2583
   2459 WAT         2.1590   34.3440   28.8410 O      2459 WAT       0.2777
   2460 WAT         2.1590   34.3440   29.0910 O      2460 WAT       0.1977
   2461 WAT         2.1590   34.3440   29.3410 O      2461 WAT       0.0950
   2462 WAT         2.1590   34.5940    8.8410 O      2462 WAT       0.0635
   2463 WAT         2.1590   34.5940    9.0910 O      2463 WAT       0.0874
   2464 WAT         2.1590   34.5940    9.3410 O      2464 WAT       0.0906
   2465 WAT         2.1590   34.5940    9.5910 O      2465 WAT       0.0716
   2466 WAT         2.1590   34.5940   28.0910 O      2466 WAT       0.0526
   2467 WAT         2.1590   34.5940   28.3410 O      2467 WAT       0.1382
   2468 WAT         2.1590   34.5940   28.5910 O      2468 WAT       0.2298
   2469 WAT         2.1590   34.5940   28.8410 O      2469 WAT       0.2495
   2470 WAT         2.1590   34.5940   29.0910 O      2470 WAT       0.1807
   2471 WAT         2.1590   34.5940   29.3410 O      2471 WAT       0.0890
   2472 WAT         2.1590   34.8440    8.8410 O      2472 WAT       0.0644
   2473 WAT         2.1590   34.8440    9.0910 O      2473 WAT       0.0813
   2474 WAT         2.1590   34.8440    9.3410 O      2474 WAT       0.0775
   2475 WAT         2.1590   34.8440    9.5910 O      2475 WAT       0.0565
   2476 WAT         2.1590   34.8440   28.3410 O      2476 WAT       0.0886
   2477 WAT         2.1590   34.8440   28.5910 O      2477 WAT       0.1466
   2478 WAT         2.1590   34.8440   28.8410 O      2478 WAT       0.1593
   2479 WAT         2.1590   34.8440   29.0910 O      2479 WAT       0.1164
   2480 WAT         2.1590   34.8440   29.3410 O      2480 WAT       0.0581
   2481 WAT         2.1590   35.0940    8.8410 O      2481 WAT       0.0478
   2482 WAT         2.1590   35.0940    9.0910 O      2482 WAT       0.0554
   2483 WAT         2.1590   35.0940    9.3410 O      2483 WAT       0.0487
   2484 WAT         2.1590   35.0940   28.5910 O      2484 WAT       0.0729
   2485 WAT         2.1590   35.0940   28.8410 O      2485 WAT       0.0785
   2486 WAT         2.1590   35.0940   29.0910 O      2486 WAT       0.0570
   2487 WAT         2.4090   18.0940   13.5910 O      2487 WAT       0.0460
   2488 WAT         2.4090   18.0940   13.8410 O      2488 WAT       0.0461
   2489 WAT         2.4090   18.3440   13.0910 O      2489 WAT       0.0451
   2490 WAT         2.4090   18.3440   13.3410 O      2490 WAT       0.0471
   2491 WAT         2.4090   18.3440   13.5910 O      2491 WAT       0.0482
   2492 WAT         2.4090   18.3440   13.8410 O      2492 WAT       0.0476
   2493 WAT         2.4090   18.3440   29.0910 O      2493 WAT       0.0798
   2494 WAT         2.4090   18.3440   29.3410 O      2494 WAT       0.1039
   2495 WAT         2.4090   18.3440   29.5910 O      2495 WAT       0.0891
   2496 WAT         2.4090   18.5940   13.3410 O      2496 WAT       0.0466
   2497 WAT         2.4090   18.5940   13.5910 O      2497 WAT       0.0476
   2498 WAT         2.4090   18.5940   13.8410 O      2498 WAT       0.0471
   2499 WAT         2.4090   18.5940   28.8410 O      2499 WAT       0.0811
   2500 WAT         2.4090   18.5940   29.0910 O      2500 WAT       0.1534
   2501 WAT         2.4090   18.5940   29.3410 O      2501 WAT       0.2061
   2502 WAT         2.4090   18.5940   29.5910 O      2502 WAT       0.1804
   2503 WAT         2.4090   18.8440   13.8410 O      2503 WAT       0.0450
   2504 WAT         2.4090   18.8440   28.8410 O      2504 WAT       0.1049
   2505 WAT         2.4090   18.8440   29.0910 O      2505 WAT       0.2081
   2506 WAT         2.4090   18.8440   29.3410 O      2506 WAT       0.2878
   2507 WAT         2.4090   18.8440   29.5910 O      2507 WAT       0.2562
   2508 WAT         2.4090   19.0940   14.3410 O      2508 WAT       0.0462
   2509 WAT         2.4090   19.0940   14.5910 O      2509 WAT       0.0481
   2510 WAT         2.4090   19.0940   14.8410 O      2510 WAT       0.0497
   2511 WAT         2.4090   19.0940   15.0910 O      2511 WAT       0.0508
   2512 WAT         2.4090   19.0940   15.3410 O      2512 WAT       0.0510
   2513 WAT         2.4090   19.0940   15.5910 O      2513 WAT       0.0506
   2514 WAT         2.4090   19.0940   15.8410 O      2514 WAT       0.0502
   2515 WAT         2.4090   19.0940   16.0910 O      2515 WAT       0.0494
   2516 WAT         2.4090   19.0940   16.3410 O      2516 WAT       0.0466
   2517 WAT         2.4090   19.0940   24.5910 O      2517 WAT       0.0468
   2518 WAT         2.4090   19.0940   28.8410 O      2518 WAT       0.0970
   2519 WAT         2.4090   19.0940   29.0910 O      2519 WAT       0.2005
   2520 WAT         2.4090   19.0940   29.3410 O      2520 WAT       0.2840
   2521 WAT         2.4090   19.0940   29.5910 O      2521 WAT       0.2564
   2522 WAT         2.4090   19.3440   14.0910 O      2522 WAT       0.0464
   2523 WAT         2.4090   19.3440   14.3410 O      2523 WAT       0.0513
   2524 WAT         2.4090   19.3440   14.5910 O      2524 WAT       0.0551
   2525 WAT         2.4090   19.3440   14.8410 O      2525 WAT       0.0570
   2526 WAT         2.4090   19.3440   15.0910 O      2526 WAT       0.0565
   2527 WAT         2.4090   19.3440   15.3410 O      2527 WAT       0.0542
   2528 WAT         2.4090   19.3440   15.5910 O      2528 WAT       0.0512
   2529 WAT         2.4090   19.3440   15.8410 O      2529 WAT       0.0490
   2530 WAT         2.4090   19.3440   16.0910 O      2530 WAT       0.0474
   2531 WAT         2.4090   19.3440   19.3410 O      2531 WAT       0.0499
   2532 WAT         2.4090   19.3440   19.5910 O      2532 WAT       0.0613
   2533 WAT         2.4090   19.3440   19.8410 O      2533 WAT       0.0716
   2534 WAT         2.4090   19.3440   20.0910 O      2534 WAT       0.0778
   2535 WAT         2.4090   19.3440   20.3410 O      2535 WAT       0.0774
   2536 WAT         2.4090   19.3440   20.5910 O      2536 WAT       0.0706
   2537 WAT         2.4090   19.3440   20.8410 O      2537 WAT       0.0596
   2538 WAT         2.4090   19.3440   21.0910 O      2538 WAT       0.0469
   2539 WAT         2.4090   19.3440   24.3410 O      2539 WAT       0.0483
   2540 WAT         2.4090   19.3440   24.5910 O      2540 WAT       0.0471
   2541 WAT         2.4090   19.3440   28.8410 O      2541 WAT       0.0656
   2542 WAT         2.4090   19.3440   29.0910 O      2542 WAT       0.1402
   2543 WAT         2.4090   19.3440   29.3410 O      2543 WAT       0.2021
   2544 WAT         2.4090   19.3440   29.5910 O      2544 WAT       0.1842
   2545 WAT         2.4090   19.5940   14.0910 O      2545 WAT       0.0495
   2546 WAT         2.4090   19.5940   14.3410 O      2546 WAT       0.0554
   2547 WAT         2.4090   19.5940   14.5910 O      2547 WAT       0.0583
   2548 WAT         2.4090   19.5940   14.8410 O      2548 WAT       0.0576
   2549 WAT         2.4090   19.5940   15.0910 O      2549 WAT       0.0537
   2550 WAT         2.4090   19.5940   15.3410 O      2550 WAT       0.0481
   2551 WAT         2.4090   19.5940   18.8410 O      2551 WAT       0.0505
   2552 WAT         2.4090   19.5940   19.0910 O      2552 WAT       0.0660
   2553 WAT         2.4090   19.5940   19.3410 O      2553 WAT       0.0880
   2554 WAT         2.4090   19.5940   19.5910 O      2554 WAT       0.1133
   2555 WAT         2.4090   19.5940   19.8410 O      2555 WAT       0.1352
   2556 WAT         2.4090   19.5940   20.0910 O      2556 WAT       0.1473
   2557 WAT         2.4090   19.5940   20.3410 O      2557 WAT       0.1458
   2558 WAT         2.4090   19.5940   20.5910 O      2558 WAT       0.1325
   2559 WAT         2.4090   19.5940   20.8410 O      2559 WAT       0.1123
   2560 WAT         2.4090   19.5940   21.0910 O      2560 WAT       0.0897
   2561 WAT         2.4090   19.5940   21.3410 O      2561 WAT       0.0684
   2562 WAT         2.4090   19.5940   21.5910 O      2562 WAT       0.0507
   2563 WAT         2.4090   19.5940   24.0910 O      2563 WAT       0.0471
   2564 WAT         2.4090   19.5940   24.3410 O      2564 WAT       0.0497
   2565 WAT         2.4090   19.5940   29.0910 O      2565 WAT       0.0731
   2566 WAT         2.4090   19.5940   29.3410 O      2566 WAT       0.1066
   2567 WAT         2.4090   19.5940   29.5910 O      2567 WAT       0.0975
   2568 WAT         2.4090   19.8440   13.8410 O      2568 WAT       0.0450
   2569 WAT         2.4090   19.8440   14.0910 O      2569 WAT       0.0518
   2570 WAT         2.4090   19.8440   14.3410 O      2570 WAT       0.0549
   2571 WAT         2.4090   19.8440   14.5910 O      2571 WAT       0.0536
   2572 WAT         2.4090   19.8440   14.8410 O      2572 WAT       0.0487
   2573 WAT         2.4090   19.8440   18.3410 O      2573 WAT       0.0464
   2574 WAT         2.4090   19.8440   18.5910 O      2574 WAT       0.0544
   2575 WAT         2.4090   19.8440   18.8410 O      2575 WAT       0.0687
   2576 WAT         2.4090   19.8440   19.0910 O      2576 WAT       0.0929
   2577 WAT         2.4090   19.8440   19.3410 O      2577 WAT       0.1269
   2578 WAT         2.4090   19.8440   19.5910 O      2578 WAT       0.1634
   2579 WAT         2.4090   19.8440   19.8410 O      2579 WAT       0.1911
   2580 WAT         2.4090   19.8440   20.0910 O      2580 WAT       0.2016
   2581 WAT         2.4090   19.8440   20.3410 O      2581 WAT       0.1938
   2582 WAT         2.4090   19.8440   20.5910 O      2582 WAT       0.1733
   2583 WAT         2.4090   19.8440   20.8410 O      2583 WAT       0.1474
   2584 WAT         2.4090   19.8440   21.0910 O      2584 WAT       0.1213
   2585 WAT         2.4090   19.8440   21.3410 O      2585 WAT       0.0979
   2586 WAT         2.4090   19.8440   21.5910 O      2586 WAT       0.0779
   2587 WAT         2.4090   19.8440   21.8410 O      2587 WAT       0.0611
   2588 WAT         2.4090   19.8440   22.0910 O      2588 WAT       0.0471
   2589 WAT         2.4090   19.8440   24.0910 O      2589 WAT       0.0482
   2590 WAT         2.4090   19.8440   24.3410 O      2590 WAT       0.0483
   2591 WAT         2.4090   20.0940   13.8410 O      2591 WAT       0.0491
   2592 WAT         2.4090   20.0940   14.0910 O      2592 WAT       0.0513
   2593 WAT         2.4090   20.0940   14.3410 O      2593 WAT       0.0485
   2594 WAT         2.4090   20.0940   18.0910 O      2594 WAT       0.0509
   2595 WAT         2.4090   20.0940   18.3410 O      2595 WAT       0.0559
   2596 WAT         2.4090   20.0940   18.5910 O      2596 WAT       0.0637
   2597 WAT         2.4090   20.0940   18.8410 O      2597 WAT       0.0800
   2598 WAT         2.4090   20.0940   19.0910 O      2598 WAT       0.1075
   2599 WAT         2.4090   20.0940   19.3410 O      2599 WAT       0.1431
   2600 WAT         2.4090   20.0940   19.5910 O      2600 WAT       0.1768
   2601 WAT         2.4090   20.0940   19.8410 O      2601 WAT       0.1959
   2602 WAT         2.4090   20.0940   20.0910 O      2602 WAT       0.1951
   2603 WAT         2.4090   20.0940   20.3410 O      2603 WAT       0.1783
   2604 WAT         2.4090   20.0940   20.5910 O      2604 WAT       0.1547
   2605 WAT         2.4090   20.0940   20.8410 O      2605 WAT       0.1316
   2606 WAT         2.4090   20.0940   21.0910 O      2606 WAT       0.1123
   2607 WAT         2.4090   20.0940   21.3410 O      2607 WAT       0.0974
   2608 WAT         2.4090   20.0940   21.5910 O      2608 WAT       0.0849
   2609 WAT         2.4090   20.0940   21.8410 O      2609 WAT       0.0729
   2610 WAT         2.4090   20.0940   22.0910 O      2610 WAT       0.0602
   2611 WAT         2.4090   20.0940   22.3410 O      2611 WAT       0.0473
   2612 WAT         2.4090   20.0940   24.0910 O      2612 WAT       0.0472
   2613 WAT         2.4090   20.3440   13.3410 O      2613 WAT       0.0461
   2614 WAT         2.4090   20.3440   13.5910 O      2614 WAT       0.0510
   2615 WAT         2.4090   20.3440   13.8410 O      2615 WAT       0.0520
   2616 WAT         2.4090   20.3440   14.0910 O      2616 WAT       0.0475
   2617 WAT         2.4090   20.3440   17.8410 O      2617 WAT       0.0506
   2618 WAT         2.4090   20.3440   18.0910 O      2618 WAT       0.0564
   2619 WAT         2.4090   20.3440   18.3410 O      2619 WAT       0.0594
   2620 WAT         2.4090   20.3440   18.5910 O      2620 WAT       0.0647
   2621 WAT         2.4090   20.3440   18.8410 O      2621 WAT       0.0772
   2622 WAT         2.4090   20.3440   19.0910 O      2622 WAT       0.0978
   2623 WAT         2.4090   20.3440   19.3410 O      2623 WAT       0.1217
   2624 WAT         2.4090   20.3440   19.5910 O      2624 WAT       0.1395
   2625 WAT         2.4090   20.3440   19.8410 O      2625 WAT       0.1429
   2626 WAT         2.4090   20.3440   20.0910 O      2626 WAT       0.1315
   2627 WAT         2.4090   20.3440   20.3410 O      2627 WAT       0.1123
   2628 WAT         2.4090   20.3440   20.5910 O      2628 WAT       0.0931
   2629 WAT         2.4090   20.3440   20.8410 O      2629 WAT       0.0788
   2630 WAT         2.4090   20.3440   21.0910 O      2630 WAT       0.0703
   2631 WAT         2.4090   20.3440   21.3410 O      2631 WAT       0.0663
   2632 WAT         2.4090   20.3440   21.5910 O      2632 WAT       0.0644
   2633 WAT         2.4090   20.3440   21.8410 O      2633 WAT       0.0617
   2634 WAT         2.4090   20.3440   22.0910 O      2634 WAT       0.0562
   2635 WAT         2.4090   20.3440   22.3410 O      2635 WAT       0.0484
   2636 WAT         2.4090   20.3440   24.0910 O      2636 WAT       0.0463
   2637 WAT         2.4090   20.5940   13.0910 O      2637 WAT       0.0502
   2638 WAT         2.4090   20.5940   13.3410 O      2638 WAT       0.0566
   2639 WAT         2.4090   20.5940   13.5910 O      2639 WAT       0.0576
   2640 WAT         2.4090   20.5940   13.8410 O      2640 WAT       0.0521
   2641 WAT         2.4090   20.5940   17.8410 O      2641 WAT       0.0505
   2642 WAT         2.4090   20.5940   18.0910 O      2642 WAT       0.0535
   2643 WAT         2.4090   20.5940   18.3410 O      2643 WAT       0.0534
   2644 WAT         2.4090   20.5940   18.5910 O      2644 WAT       0.0543
   2645 WAT         2.4090   20.5940   18.8410 O      2645 WAT       0.0594
   2646 WAT         2.4090   20.5940   19.0910 O      2646 WAT       0.0680
   2647 WAT         2.4090   20.5940   19.3410 O      2647 WAT       0.0762
   2648 WAT         2.4090   20.5940   19.5910 O      2648 WAT       0.0788
   2649 WAT         2.4090   20.5940   19.8410 O      2649 WAT       0.0730
   2650 WAT         2.4090   20.5940   20.0910 O      2650 WAT       0.0610
   2651 WAT         2.4090   20.5940   20.3410 O      2651 WAT       0.0476
   2652 WAT         2.4090   20.5940   23.5910 O      2652 WAT       0.0462
   2653 WAT         2.4090   20.5940   23.8410 O      2653 WAT       0.0490
   2654 WAT         2.4090   20.5940   24.0910 O      2654 WAT       0.0475
   2655 WAT         2.4090   20.8440   12.8410 O      2655 WAT       0.0508
   2656 WAT         2.4090   20.8440   13.0910 O      2656 WAT       0.0603
   2657 WAT         2.4090   20.8440   13.3410 O      2657 WAT       0.0644
   2658 WAT         2.4090   20.8440   13.5910 O      2658 WAT       0.0605
   2659 WAT         2.4090   20.8440   13.8410 O      2659 WAT       0.0494
   2660 WAT         2.4090   20.8440   23.3410 O      2660 WAT       0.0480
   2661 WAT         2.4090   20.8440   23.5910 O      2661 WAT       0.0540
   2662 WAT         2.4090   20.8440   23.8410 O      2662 WAT       0.0559
   2663 WAT         2.4090   20.8440   24.0910 O      2663 WAT       0.0522
   2664 WAT         2.4090   21.0940   12.5910 O      2664 WAT       0.0479
   2665 WAT         2.4090   21.0940   12.8410 O      2665 WAT       0.0590
   2666 WAT         2.4090   21.0940   13.0910 O      2666 WAT       0.0671
   2667 WAT         2.4090   21.0940   13.3410 O      2667 WAT       0.0677
   2668 WAT         2.4090   21.0940   13.5910 O      2668 WAT       0.0595
   2669 WAT         2.4090   21.0940   23.3410 O      2669 WAT       0.0537
   2670 WAT         2.4090   21.0940   23.5910 O      2670 WAT       0.0642
   2671 WAT         2.4090   21.0940   23.8410 O      2671 WAT       0.0674
   2672 WAT         2.4090   21.0940   24.0910 O      2672 WAT       0.0620
   2673 WAT         2.4090   21.0940   24.3410 O      2673 WAT       0.0499
   2674 WAT         2.4090   21.3440   10.3410 O      2674 WAT       0.0464
   2675 WAT         2.4090   21.3440   10.5910 O      2675 WAT       0.0502
   2676 WAT         2.4090   21.3440   10.8410 O      2676 WAT       0.0481
   2677 WAT         2.4090   21.3440   12.5910 O      2677 WAT       0.0533
   2678 WAT         2.4090   21.3440   12.8410 O      2678 WAT       0.0639
   2679 WAT         2.4090   21.3440   13.0910 O      2679 WAT       0.0700
   2680 WAT         2.4090   21.3440   13.3410 O      2680 WAT       0.0677
   2681 WAT         2.4090   21.3440   13.5910 O      2681 WAT       0.0568
   2682 WAT         2.4090   21.3440   16.3410 O      2682 WAT       0.0468
   2683 WAT         2.4090   21.3440   16.5910 O      2683 WAT       0.0451
   2684 WAT         2.4090   21.3440   23.3410 O      2684 WAT       0.0609
   2685 WAT         2.4090   21.3440   23.5910 O      2685 WAT       0.0790
   2686 WAT         2.4090   21.3440   23.8410 O      2686 WAT       0.0852
   2687 WAT         2.4090   21.3440   24.0910 O      2687 WAT       0.0778
   2688 WAT         2.4090   21.3440   24.3410 O      2688 WAT       0.0616
   2689 WAT         2.4090   21.5940   10.3410 O      2689 WAT       0.0531
   2690 WAT         2.4090   21.5940   10.5910 O      2690 WAT       0.0611
   2691 WAT         2.4090   21.5940   10.8410 O      2691 WAT       0.0613
   2692 WAT         2.4090   21.5940   11.0910 O      2692 WAT       0.0538
   2693 WAT         2.4090   21.5940   12.5910 O      2693 WAT       0.0539
   2694 WAT         2.4090   21.5940   12.8410 O      2694 WAT       0.0640
   2695 WAT         2.4090   21.5940   13.0910 O      2695 WAT       0.0690
   2696 WAT         2.4090   21.5940   13.3410 O      2696 WAT       0.0655
   2697 WAT         2.4090   21.5940   13.5910 O      2697 WAT       0.0538
   2698 WAT         2.4090   21.5940   15.8410 O      2698 WAT       0.0507
   2699 WAT         2.4090   21.5940   16.0910 O      2699 WAT       0.0580
   2700 WAT         2.4090   21.5940   16.3410 O      2700 WAT       0.0559
   2701 WAT         2.4090   21.5940   16.5910 O      2701 WAT       0.0458
   2702 WAT         2.4090   21.5940   23.3410 O      2702 WAT       0.0699
   2703 WAT         2.4090   21.5940   23.5910 O      2703 WAT       0.0977
   2704 WAT         2.4090   21.5940   23.8410 O      2704 WAT       0.1077
   2705 WAT         2.4090   21.5940   24.0910 O      2705 WAT       0.0966
   2706 WAT         2.4090   21.5940   24.3410 O      2706 WAT       0.0741
   2707 WAT         2.4090   21.5940   24.5910 O      2707 WAT       0.0519
   2708 WAT         2.4090   21.8440   10.3410 O      2708 WAT       0.0535
   2709 WAT         2.4090   21.8440   10.5910 O      2709 WAT       0.0629
   2710 WAT         2.4090   21.8440   10.8410 O      2710 WAT       0.0646
   2711 WAT         2.4090   21.8440   11.0910 O      2711 WAT       0.0578
   2712 WAT         2.4090   21.8440   11.3410 O      2712 WAT       0.0465
   2713 WAT         2.4090   21.8440   12.5910 O      2713 WAT       0.0481
   2714 WAT         2.4090   21.8440   12.8410 O      2714 WAT       0.0581
   2715 WAT         2.4090   21.8440   13.0910 O      2715 WAT       0.0637
   2716 WAT         2.4090   21.8440   13.3410 O      2716 WAT       0.0612
   2717 WAT         2.4090   21.8440   13.5910 O      2717 WAT       0.0507
   2718 WAT         2.4090   21.8440   15.5910 O      2718 WAT       0.0479
   2719 WAT         2.4090   21.8440   15.8410 O      2719 WAT       0.0574
   2720 WAT         2.4090   21.8440   16.0910 O      2720 WAT       0.0568
   2721 WAT         2.4090   21.8440   16.3410 O      2721 WAT       0.0469
   2722 WAT         2.4090   21.8440   23.3410 O      2722 WAT       0.0757
   2723 WAT         2.4090   21.8440   23.5910 O      2723 WAT       0.1112
   2724 WAT         2.4090   21.8440   23.8410 O      2724 WAT       0.1236
   2725 WAT         2.4090   21.8440   24.0910 O      2725 WAT       0.1082
   2726 WAT         2.4090   21.8440   24.3410 O      2726 WAT       0.0793
   2727 WAT         2.4090   21.8440   24.5910 O      2727 WAT       0.0530
   2728 WAT         2.4090   22.0940   10.3410 O      2728 WAT       0.0465
   2729 WAT         2.4090   22.0940   10.5910 O      2729 WAT       0.0536
   2730 WAT         2.4090   22.0940   10.8410 O      2730 WAT       0.0548
   2731 WAT         2.4090   22.0940   11.0910 O      2731 WAT       0.0491
   2732 WAT         2.4090   22.0940   12.8410 O      2732 WAT       0.0473
   2733 WAT         2.4090   22.0940   13.0910 O      2733 WAT       0.0546
   2734 WAT         2.4090   22.0940   13.3410 O      2734 WAT       0.0545
   2735 WAT         2.4090   22.0940   13.5910 O      2735 WAT       0.0462
   2736 WAT         2.4090   22.0940   15.8410 O      2736 WAT       0.0457
   2737 WAT         2.4090   22.0940   23.3410 O      2737 WAT       0.0684
   2738 WAT         2.4090   22.0940   23.5910 O      2738 WAT       0.1041
   2739 WAT         2.4090   22.0940   23.8410 O      2739 WAT       0.1168
   2740 WAT         2.4090   22.0940   24.0910 O      2740 WAT       0.1003
   2741 WAT         2.4090   22.0940   24.3410 O      2741 WAT       0.0702
   2742 WAT         2.4090   22.3440   23.3410 O      2742 WAT       0.0467
   2743 WAT         2.4090   22.3440   23.5910 O      2743 WAT       0.0736
   2744 WAT         2.4090   22.3440   23.8410 O      2744 WAT       0.0841
   2745 WAT         2.4090   22.3440   24.0910 O      2745 WAT       0.0721
   2746 WAT         2.4090   22.3440   24.3410 O      2746 WAT       0.0489
   2747 WAT         2.4090   22.5940    7.5910 O      2747 WAT       0.0474
   2748 WAT         2.4090   22.5940    7.8410 O      2748 WAT       0.0624
   2749 WAT         2.4090   22.5940    8.0910 O      2749 WAT       0.0750
   2750 WAT         2.4090   22.5940    8.3410 O      2750 WAT       0.0786
   2751 WAT         2.4090   22.5940    8.5910 O      2751 WAT       0.0694
   2752 WAT         2.4090   22.5940    8.8410 O      2752 WAT       0.0507
   2753 WAT         2.4090   22.8440    7.3410 O      2753 WAT       0.0455
   2754 WAT         2.4090   22.8440    7.5910 O      2754 WAT       0.0628
   2755 WAT         2.4090   22.8440    7.8410 O      2755 WAT       0.0852
   2756 WAT         2.4090   22.8440    8.0910 O      2756 WAT       0.1069
   2757 WAT         2.4090   22.8440    8.3410 O      2757 WAT       0.1173
   2758 WAT         2.4090   22.8440    8.5910 O      2758 WAT       0.1080
   2759 WAT         2.4090   22.8440    8.8410 O      2759 WAT       0.0805
   2760 WAT         2.4090   22.8440    9.0910 O      2760 WAT       0.0477
   2761 WAT         2.4090   23.0940    7.5910 O      2761 WAT       0.0598
   2762 WAT         2.4090   23.0940    7.8410 O      2762 WAT       0.0831
   2763 WAT         2.4090   23.0940    8.0910 O      2763 WAT       0.1089
   2764 WAT         2.4090   23.0940    8.3410 O      2764 WAT       0.1260
   2765 WAT         2.4090   23.0940    8.5910 O      2765 WAT       0.1221
   2766 WAT         2.4090   23.0940    8.8410 O      2766 WAT       0.0950
   2767 WAT         2.4090   23.0940    9.0910 O      2767 WAT       0.0573
   2768 WAT         2.4090   23.3440    7.8410 O      2768 WAT       0.0581
   2769 WAT         2.4090   23.3440    8.0910 O      2769 WAT       0.0797
   2770 WAT         2.4090   23.3440    8.3410 O      2770 WAT       0.0977
   2771 WAT         2.4090   23.3440    8.5910 O      2771 WAT       0.1006
   2772 WAT         2.4090   23.3440    8.8410 O      2772 WAT       0.0828
   2773 WAT         2.4090   23.3440    9.0910 O      2773 WAT       0.0522
   2774 WAT         2.4090   23.5940    8.3410 O      2774 WAT       0.0552
   2775 WAT         2.4090   23.5940    8.5910 O      2775 WAT       0.0610
   2776 WAT         2.4090   23.5940    8.8410 O      2776 WAT       0.0536
   2777 WAT         2.4090   25.8440    3.5910 O      2777 WAT       0.0457
   2778 WAT         2.4090   26.0940    3.3410 O      2778 WAT       0.0451
   2779 WAT         2.4090   26.0940    3.5910 O      2779 WAT       0.0480
   2780 WAT         2.4090   26.3440    3.3410 O      2780 WAT       0.0453
   2781 WAT         2.4090   26.3440    3.5910 O      2781 WAT       0.0482
   2782 WAT         2.4090   26.5940    3.5910 O      2782 WAT       0.0468
   2783 WAT         2.4090   26.8440    3.5910 O      2783 WAT       0.0452
   2784 WAT         2.4090   27.8440   18.0910 O      2784 WAT       0.0615
   2785 WAT         2.4090   27.8440   18.3410 O      2785 WAT       0.0957
   2786 WAT         2.4090   27.8440   18.5910 O      2786 WAT       0.0945
   2787 WAT         2.4090   27.8440   18.8410 O      2787 WAT       0.0592
   2788 WAT         2.4090   28.0940   18.0910 O      2788 WAT       0.0882
   2789 WAT         2.4090   28.0940   18.3410 O      2789 WAT       0.1364
   2790 WAT         2.4090   28.0940   18.5910 O      2790 WAT       0.1344
   2791 WAT         2.4090   28.0940   18.8410 O      2791 WAT       0.0843
   2792 WAT         2.4090   28.3440   18.0910 O      2792 WAT       0.0794
   2793 WAT         2.4090   28.3440   18.3410 O      2793 WAT       0.1225
   2794 WAT         2.4090   28.3440   18.5910 O      2794 WAT       0.1200
   2795 WAT         2.4090   28.3440   18.8410 O      2795 WAT       0.0748
   2796 WAT         2.4090   28.5940   18.3410 O      2796 WAT       0.0690
   2797 WAT         2.4090   28.5940   18.5910 O      2797 WAT       0.0670
   2798 WAT         2.4090   29.3440    4.3410 O      2798 WAT       0.0567
   2799 WAT         2.4090   29.3440    4.5910 O      2799 WAT       0.0684
   2800 WAT         2.4090   29.3440    4.8410 O      2800 WAT       0.0719
   2801 WAT         2.4090   29.3440    5.0910 O      2801 WAT       0.0680
   2802 WAT         2.4090   29.3440    5.3410 O      2802 WAT       0.0593
   2803 WAT         2.4090   29.3440    5.5910 O      2803 WAT       0.0482
   2804 WAT         2.4090   29.5940    4.0910 O      2804 WAT       0.0659
   2805 WAT         2.4090   29.5940    4.3410 O      2805 WAT       0.0916
   2806 WAT         2.4090   29.5940    4.5910 O      2806 WAT       0.1076
   2807 WAT         2.4090   29.5940    4.8410 O      2807 WAT       0.1091
   2808 WAT         2.4090   29.5940    5.0910 O      2808 WAT       0.0991
   2809 WAT         2.4090   29.5940    5.3410 O      2809 WAT       0.0832
   2810 WAT         2.4090   29.5940    5.5910 O      2810 WAT       0.0657
   2811 WAT         2.4090   29.5940    5.8410 O      2811 WAT       0.0488
   2812 WAT         2.4090   29.8440    3.8410 O      2812 WAT       0.0587
   2813 WAT         2.4090   29.8440    4.0910 O      2813 WAT       0.0893
   2814 WAT         2.4090   29.8440    4.3410 O      2814 WAT       0.1162
   2815 WAT         2.4090   29.8440    4.5910 O      2815 WAT       0.1282
   2816 WAT         2.4090   29.8440    4.8410 O      2816 WAT       0.1220
   2817 WAT         2.4090   29.8440    5.0910 O      2817 WAT       0.1042
   2818 WAT         2.4090   29.8440    5.3410 O      2818 WAT       0.0831
   2819 WAT         2.4090   29.8440    5.5910 O      2819 WAT       0.0632
   2820 WAT         2.4090   29.8440    5.8410 O      2820 WAT       0.0460
   2821 WAT         2.4090   30.0940    3.5910 O      2821 WAT       0.0471
   2822 WAT         2.4090   30.0940    3.8410 O      2822 WAT       0.0700
   2823 WAT         2.4090   30.0940    4.0910 O      2823 WAT       0.0941
   2824 WAT         2.4090   30.0940    4.3410 O      2824 WAT       0.1105
   2825 WAT         2.4090   30.0940    4.5910 O      2825 WAT       0.1115
   2826 WAT         2.4090   30.0940    4.8410 O      2826 WAT       0.0980
   2827 WAT         2.4090   30.0940    5.0910 O      2827 WAT       0.0774
   2828 WAT         2.4090   30.0940    5.3410 O      2828 WAT       0.0574
   2829 WAT         2.4090   30.3440    3.5910 O      2829 WAT       0.0536
   2830 WAT         2.4090   30.3440    3.8410 O      2830 WAT       0.0666
   2831 WAT         2.4090   30.3440    4.0910 O      2831 WAT       0.0756
   2832 WAT         2.4090   30.3440    4.3410 O      2832 WAT       0.0771
   2833 WAT         2.4090   30.3440    4.5910 O      2833 WAT       0.0696
   2834 WAT         2.4090   30.3440    4.8410 O      2834 WAT       0.0555
   2835 WAT         2.4090   30.5940    3.5910 O      2835 WAT       0.0500
   2836 WAT         2.4090   30.5940    3.8410 O      2836 WAT       0.0504
   2837 WAT         2.4090   30.5940    4.0910 O      2837 WAT       0.0462
   2838 WAT         2.4090   30.5940   14.8410 O      2838 WAT       0.0529
   2839 WAT         2.4090   30.5940   15.0910 O      2839 WAT       0.0479
   2840 WAT         2.4090   30.8440   14.5910 O      2840 WAT       0.0623
   2841 WAT         2.4090   30.8440   14.8410 O      2841 WAT       0.0866
   2842 WAT         2.4090   30.8440   15.0910 O      2842 WAT       0.0782
   2843 WAT         2.4090   30.8440   15.3410 O      2843 WAT       0.0460
   2844 WAT         2.4090   31.0940   14.5910 O      2844 WAT       0.0760
   2845 WAT         2.4090   31.0940   14.8410 O      2845 WAT       0.1035
   2846 WAT         2.4090   31.0940   15.0910 O      2846 WAT       0.0924
   2847 WAT         2.4090   31.0940   15.3410 O      2847 WAT       0.0541
   2848 WAT         2.4090   31.3440   14.5910 O      2848 WAT       0.0677
   2849 WAT         2.4090   31.3440   14.8410 O      2849 WAT       0.0899
   2850 WAT         2.4090   31.3440   15.0910 O      2850 WAT       0.0789
   2851 WAT         2.4090   31.3440   15.3410 O      2851 WAT       0.0456
   2852 WAT         2.4090   31.5940   14.8410 O      2852 WAT       0.0569
   2853 WAT         2.4090   31.5940   15.0910 O      2853 WAT       0.0488
   2854 WAT         2.4090   34.0940   28.5910 O      2854 WAT       0.0715
   2855 WAT         2.4090   34.0940   28.8410 O      2855 WAT       0.0756
   2856 WAT         2.4090   34.0940   29.0910 O      2856 WAT       0.0521
   2857 WAT         2.4090   34.3440   28.3410 O      2857 WAT       0.0564
   2858 WAT         2.4090   34.3440   28.5910 O      2858 WAT       0.0944
   2859 WAT         2.4090   34.3440   28.8410 O      2859 WAT       0.1014
   2860 WAT         2.4090   34.3440   29.0910 O      2860 WAT       0.0715
   2861 WAT         2.4090   34.5940   28.3410 O      2861 WAT       0.0493
   2862 WAT         2.4090   34.5940   28.5910 O      2862 WAT       0.0829
   2863 WAT         2.4090   34.5940   28.8410 O      2863 WAT       0.0900
   2864 WAT         2.4090   34.5940   29.0910 O      2864 WAT       0.0645
   2865 WAT         2.4090   34.8440   28.5910 O      2865 WAT       0.0517
   2866 WAT         2.4090   34.8440   28.8410 O      2866 WAT       0.0562
   2867 WAT         2.6590   16.8440   24.8410 O      2867 WAT       0.0452
   2868 WAT         2.6590   17.0940   24.5910 O      2868 WAT       0.0500
   2869 WAT         2.6590   17.0940   24.8410 O      2869 WAT       0.0509
   2870 WAT         2.6590   17.0940   25.0910 O      2870 WAT       0.0475
   2871 WAT         2.6590   17.3440   24.3410 O      2871 WAT       0.0463
   2872 WAT         2.6590   17.3440   24.5910 O      2872 WAT       0.0522
   2873 WAT         2.6590   17.3440   24.8410 O      2873 WAT       0.0533
   2874 WAT         2.6590   17.3440   25.0910 O      2874 WAT       0.0494
   2875 WAT         2.6590   17.5940   24.3410 O      2875 WAT       0.0454
   2876 WAT         2.6590   17.5940   24.5910 O      2876 WAT       0.0507
   2877 WAT         2.6590   17.5940   24.8410 O      2877 WAT       0.0515
   2878 WAT         2.6590   17.5940   25.0910 O      2878 WAT       0.0474
   2879 WAT         2.6590   17.8440   24.5910 O      2879 WAT       0.0470
   2880 WAT         2.6590   17.8440   24.8410 O      2880 WAT       0.0473
   2881 WAT         2.6590   18.3440   28.8410 O      2881 WAT       0.0501
   2882 WAT         2.6590   18.3440   29.0910 O      2882 WAT       0.0899
   2883 WAT         2.6590   18.3440   29.3410 O      2883 WAT       0.1164
   2884 WAT         2.6590   18.3440   29.5910 O      2884 WAT       0.0997
   2885 WAT         2.6590   18.5940   15.8410 O      2885 WAT       0.0476
   2886 WAT         2.6590   18.5940   16.0910 O      2886 WAT       0.0486
   2887 WAT         2.6590   18.5940   16.3410 O      2887 WAT       0.0466
   2888 WAT         2.6590   18.5940   28.8410 O      2888 WAT       0.0872
   2889 WAT         2.6590   18.5940   29.0910 O      2889 WAT       0.1652
   2890 WAT         2.6590   18.5940   29.3410 O      2890 WAT       0.2219
   2891 WAT         2.6590   18.5940   29.5910 O      2891 WAT       0.1943
   2892 WAT         2.6590   18.8440   15.0910 O      2892 WAT       0.0470
   2893 WAT         2.6590   18.8440   15.3410 O      2893 WAT       0.0514
   2894 WAT         2.6590   18.8440   15.5910 O      2894 WAT       0.0557
   2895 WAT         2.6590   18.8440   15.8410 O      2895 WAT       0.0593
   2896 WAT         2.6590   18.8440   16.0910 O      2896 WAT       0.0603
   2897 WAT         2.6590   18.8440   16.3410 O      2897 WAT       0.0574
   2898 WAT         2.6590   18.8440   16.5910 O      2898 WAT       0.0509
   2899 WAT         2.6590   18.8440   28.8410 O      2899 WAT       0.1043
   2900 WAT         2.6590   18.8440   29.0910 O      2900 WAT       0.2081
   2901 WAT         2.6590   18.8440   29.3410 O      2901 WAT       0.2887
   2902 WAT         2.6590   18.8440   29.5910 O      2902 WAT       0.2577
   2903 WAT         2.6590   19.0940   14.5910 O      2903 WAT       0.0478
   2904 WAT         2.6590   19.0940   14.8410 O      2904 WAT       0.0531
   2905 WAT         2.6590   19.0940   15.0910 O      2905 WAT       0.0585
   2906 WAT         2.6590   19.0940   15.3410 O      2906 WAT       0.0631
   2907 WAT         2.6590   19.0940   15.5910 O      2907 WAT       0.0667
   2908 WAT         2.6590   19.0940   15.8410 O      2908 WAT       0.0693
   2909 WAT         2.6590   19.0940   16.0910 O      2909 WAT       0.0697
   2910 WAT         2.6590   19.0940   16.3410 O      2910 WAT       0.0659
   2911 WAT         2.6590   19.0940   16.5910 O      2911 WAT       0.0582
   2912 WAT         2.6590   19.0940   16.8410 O      2912 WAT       0.0488
   2913 WAT         2.6590   19.0940   28.8410 O      2913 WAT       0.0861
   2914 WAT         2.6590   19.0940   29.0910 O      2914 WAT       0.1801
   2915 WAT         2.6590   19.0940   29.3410 O      2915 WAT       0.2569
   2916 WAT         2.6590   19.0940   29.5910 O      2916 WAT       0.2332
   2917 WAT         2.6590   19.3440   14.3410 O      2917 WAT       0.0495
   2918 WAT         2.6590   19.3440   14.5910 O      2918 WAT       0.0569
   2919 WAT         2.6590   19.3440   14.8410 O      2919 WAT       0.0634
   2920 WAT         2.6590   19.3440   15.0910 O      2920 WAT       0.0678
   2921 WAT         2.6590   19.3440   15.3410 O      2921 WAT       0.0697
   2922 WAT         2.6590   19.3440   15.5910 O      2922 WAT       0.0699
   2923 WAT         2.6590   19.3440   15.8410 O      2923 WAT       0.0699
   2924 WAT         2.6590   19.3440   16.0910 O      2924 WAT       0.0691
   2925 WAT         2.6590   19.3440   16.3410 O      2925 WAT       0.0651
   2926 WAT         2.6590   19.3440   16.5910 O      2926 WAT       0.0578
   2927 WAT         2.6590   19.3440   16.8410 O      2927 WAT       0.0491
   2928 WAT         2.6590   19.3440   19.0910 O      2928 WAT       0.0462
   2929 WAT         2.6590   19.3440   19.3410 O      2929 WAT       0.0536
   2930 WAT         2.6590   19.3440   19.5910 O      2930 WAT       0.0629
   2931 WAT         2.6590   19.3440   19.8410 O      2931 WAT       0.0730
   2932 WAT         2.6590   19.3440   20.0910 O      2932 WAT       0.0814
   2933 WAT         2.6590   19.3440   20.3410 O      2933 WAT       0.0848
   2934 WAT         2.6590   19.3440   20.5910 O      2934 WAT       0.0811
   2935 WAT         2.6590   19.3440   20.8410 O      2935 WAT       0.0701
   2936 WAT         2.6590   19.3440   21.0910 O      2936 WAT       0.0543
   2937 WAT         2.6590   19.3440   28.8410 O      2937 WAT       0.0497
   2938 WAT         2.6590   19.3440   29.0910 O      2938 WAT       0.1085
   2939 WAT         2.6590   19.3440   29.3410 O      2939 WAT       0.1585
   2940 WAT         2.6590   19.3440   29.5910 O      2940 WAT       0.1457
   2941 WAT         2.6590   19.5940   14.0910 O      2941 WAT       0.0475
   2942 WAT         2.6590   19.5940   14.3410 O      2942 WAT       0.0562
   2943 WAT         2.6590   19.5940   14.5910 O      2943 WAT       0.0632
   2944 WAT         2.6590   19.5940   14.8410 O      2944 WAT       0.0671
   2945 WAT         2.6590   19.5940   15.0910 O      2945 WAT       0.0671
   2946 WAT         2.6590   19.5940   15.3410 O      2946 WAT       0.0642
   2947 WAT         2.6590   19.5940   15.5910 O      2947 WAT       0.0603
   2948 WAT         2.6590   19.5940   15.8410 O      2948 WAT       0.0575
   2949 WAT         2.6590   19.5940   16.0910 O      2949 WAT       0.0557
   2950 WAT         2.6590   19.5940   16.3410 O      2950 WAT       0.0525
   2951 WAT         2.6590   19.5940   16.5910 O      2951 WAT       0.0473
   2952 WAT         2.6590   19.5940   18.8410 O      2952 WAT       0.0501
   2953 WAT         2.6590   19.5940   19.0910 O      2953 WAT       0.0595
   2954 WAT         2.6590   19.5940   19.3410 O      2954 WAT       0.0748
   2955 WAT         2.6590   19.5940   19.5910 O      2955 WAT       0.0948
   2956 WAT         2.6590   19.5940   19.8410 O      2956 WAT       0.1156
   2957 WAT         2.6590   19.5940   20.0910 O      2957 WAT       0.1321
   2958 WAT         2.6590   19.5940   20.3410 O      2958 WAT       0.1392
   2959 WAT         2.6590   19.5940   20.5910 O      2959 WAT       0.1345
   2960 WAT         2.6590   19.5940   20.8410 O      2960 WAT       0.1182
   2961 WAT         2.6590   19.5940   21.0910 O      2961 WAT       0.0946
   2962 WAT         2.6590   19.5940   21.3410 O      2962 WAT       0.0701
   2963 WAT         2.6590   19.5940   21.5910 O      2963 WAT       0.0503
   2964 WAT         2.6590   19.5940   29.0910 O      2964 WAT       0.0464
   2965 WAT         2.6590   19.5940   29.3410 O      2965 WAT       0.0691
   2966 WAT         2.6590   19.5940   29.5910 O      2966 WAT       0.0641
   2967 WAT         2.6590   19.8440   14.0910 O      2967 WAT       0.0529
   2968 WAT         2.6590   19.8440   14.3410 O      2968 WAT       0.0591
   2969 WAT         2.6590   19.8440   14.5910 O      2969 WAT       0.0613
   2970 WAT         2.6590   19.8440   14.8410 O      2970 WAT       0.0594
   2971 WAT         2.6590   19.8440   15.0910 O      2971 WAT       0.0541
   2972 WAT         2.6590   19.8440   15.3410 O      2972 WAT       0.0473
   2973 WAT         2.6590   19.8440   18.3410 O      2973 WAT       0.0455
   2974 WAT         2.6590   19.8440   18.5910 O      2974 WAT       0.0479
   2975 WAT         2.6590   19.8440   18.8410 O      2975 WAT       0.0539
   2976 WAT         2.6590   19.8440   19.0910 O      2976 WAT       0.0669
   2977 WAT         2.6590   19.8440   19.3410 O      2977 WAT       0.0883
   2978 WAT         2.6590   19.8440   19.5910 O      2978 WAT       0.1150
   2979 WAT         2.6590   19.8440   19.8410 O      2979 WAT       0.1403
   2980 WAT         2.6590   19.8440   20.0910 O      2980 WAT       0.1575
   2981 WAT         2.6590   19.8440   20.3410 O      2981 WAT       0.1630
   2982 WAT         2.6590   19.8440   20.5910 O      2982 WAT       0.1565
   2983 WAT         2.6590   19.8440   20.8410 O      2983 WAT       0.1396
   2984 WAT         2.6590   19.8440   21.0910 O      2984 WAT       0.1163
   2985 WAT         2.6590   19.8440   21.3410 O      2985 WAT       0.0926
   2986 WAT         2.6590   19.8440   21.5910 O      2986 WAT       0.0725
   2987 WAT         2.6590   19.8440   21.8410 O      2987 WAT       0.0568
   2988 WAT         2.6590   20.0940   13.8410 O      2988 WAT       0.0512
   2989 WAT         2.6590   20.0940   14.0910 O      2989 WAT       0.0556
   2990 WAT         2.6590   20.0940   14.3410 O      2990 WAT       0.0554
   2991 WAT         2.6590   20.0940   14.5910 O      2991 WAT       0.0507
   2992 WAT         2.6590   20.0940   18.5910 O      2992 WAT       0.0455
   2993 WAT         2.6590   20.0940   18.8410 O      2993 WAT       0.0510
   2994 WAT         2.6590   20.0940   19.0910 O      2994 WAT       0.0642
   2995 WAT         2.6590   20.0940   19.3410 O      2995 WAT       0.0847
   2996 WAT         2.6590   20.0940   19.5910 O      2996 WAT       0.1075
   2997 WAT         2.6590   20.0940   19.8410 O      2997 WAT       0.1255
   2998 WAT         2.6590   20.0940   20.0910 O      2998 WAT       0.1338
   2999 WAT         2.6590   20.0940   20.3410 O      2999 WAT       0.1326
   3000 WAT         2.6590   20.0940   20.5910 O      3000 WAT       0.1246
   3001 WAT         2.6590   20.0940   20.8410 O      3001 WAT       0.1121
   3002 WAT         2.6590   20.0940   21.0910 O      3002 WAT       0.0978
   3003 WAT         2.6590   20.0940   21.3410 O      3003 WAT       0.0847
   3004 WAT         2.6590   20.0940   21.5910 O      3004 WAT       0.0738
   3005 WAT         2.6590   20.0940   21.8410 O      3005 WAT       0.0641
   3006 WAT         2.6590   20.0940   22.0910 O      3006 WAT       0.0543
   3007 WAT         2.6590   20.3440   13.3410 O      3007 WAT       0.0497
   3008 WAT         2.6590   20.3440   13.5910 O      3008 WAT       0.0550
   3009 WAT         2.6590   20.3440   13.8410 O      3009 WAT       0.0570
   3010 WAT         2.6590   20.3440   14.0910 O      3010 WAT       0.0539
   3011 WAT         2.6590   20.3440   14.3410 O      3011 WAT       0.0461
   3012 WAT         2.6590   20.3440   19.0910 O      3012 WAT       0.0501
   3013 WAT         2.6590   20.3440   19.3410 O      3013 WAT       0.0627
   3014 WAT         2.6590   20.3440   19.5910 O      3014 WAT       0.0745
   3015 WAT         2.6590   20.3440   19.8410 O      3015 WAT       0.0805
   3016 WAT         2.6590   20.3440   20.0910 O      3016 WAT       0.0794
   3017 WAT         2.6590   20.3440   20.3410 O      3017 WAT       0.0737
   3018 WAT         2.6590   20.3440   20.5910 O      3018 WAT       0.0667
   3019 WAT         2.6590   20.3440   20.8410 O      3019 WAT       0.0602
   3020 WAT         2.6590   20.3440   21.0910 O      3020 WAT       0.0554
   3021 WAT         2.6590   20.3440   21.3410 O      3021 WAT       0.0528
   3022 WAT         2.6590   20.3440   21.5910 O      3022 WAT       0.0520
   3023 WAT         2.6590   20.3440   21.8410 O      3023 WAT       0.0510
   3024 WAT         2.6590   20.3440   22.0910 O      3024 WAT       0.0482
   3025 WAT         2.6590   20.3440   23.8410 O      3025 WAT       0.0453
   3026 WAT         2.6590   20.5940   12.8410 O      3026 WAT       0.0479
   3027 WAT         2.6590   20.5940   13.0910 O      3027 WAT       0.0576
   3028 WAT         2.6590   20.5940   13.3410 O      3028 WAT       0.0640
   3029 WAT         2.6590   20.5940   13.5910 O      3029 WAT       0.0649
   3030 WAT         2.6590   20.5940   13.8410 O      3030 WAT       0.0592
   3031 WAT         2.6590   20.5940   14.0910 O      3031 WAT       0.0480
   3032 WAT         2.6590   20.5940   23.5910 O      3032 WAT       0.0483
   3033 WAT         2.6590   20.5940   23.8410 O      3033 WAT       0.0503
   3034 WAT         2.6590   20.5940   24.0910 O      3034 WAT       0.0456
   3035 WAT         2.6590   20.8440   12.5910 O      3035 WAT       0.0484
   3036 WAT         2.6590   20.8440   12.8410 O      3036 WAT       0.0610
   3037 WAT         2.6590   20.8440   13.0910 O      3037 WAT       0.0713
   3038 WAT         2.6590   20.8440   13.3410 O      3038 WAT       0.0749
   3039 WAT         2.6590   20.8440   13.5910 O      3039 WAT       0.0697
   3040 WAT         2.6590   20.8440   13.8410 O      3040 WAT       0.0568
   3041 WAT         2.6590   20.8440   23.3410 O      3041 WAT       0.0477
   3042 WAT         2.6590   20.8440   23.5910 O      3042 WAT       0.0563
   3043 WAT         2.6590   20.8440   23.8410 O      3043 WAT       0.0582
   3044 WAT         2.6590   20.8440   24.0910 O      3044 WAT       0.0514
   3045 WAT         2.6590   21.0940   12.5910 O      3045 WAT       0.0572
   3046 WAT         2.6590   21.0940   12.8410 O      3046 WAT       0.0708
   3047 WAT         2.6590   21.0940   13.0910 O      3047 WAT       0.0795
   3048 WAT         2.6590   21.0940   13.3410 O      3048 WAT       0.0789
   3049 WAT         2.6590   21.0940   13.5910 O      3049 WAT       0.0681
   3050 WAT         2.6590   21.0940   13.8410 O      3050 WAT       0.0506
   3051 WAT         2.6590   21.0940   23.3410 O      3051 WAT       0.0524
   3052 WAT         2.6590   21.0940   23.5910 O      3052 WAT       0.0664
   3053 WAT         2.6590   21.0940   23.8410 O      3053 WAT       0.0705
   3054 WAT         2.6590   21.0940   24.0910 O      3054 WAT       0.0622
   3055 WAT         2.6590   21.0940   24.3410 O      3055 WAT       0.0455
   3056 WAT         2.6590   21.3440   10.3410 O      3056 WAT       0.0495
   3057 WAT         2.6590   21.3440   10.5910 O      3057 WAT       0.0526
   3058 WAT         2.6590   21.3440   10.8410 O      3058 WAT       0.0496
   3059 WAT         2.6590   21.3440   12.3410 O      3059 WAT       0.0472
   3060 WAT         2.6590   21.3440   12.5910 O      3060 WAT       0.0615
   3061 WAT         2.6590   21.3440   12.8410 O      3061 WAT       0.0746
   3062 WAT         2.6590   21.3440   13.0910 O      3062 WAT       0.0808
   3063 WAT         2.6590   21.3440   13.3410 O      3063 WAT       0.0764
   3064 WAT         2.6590   21.3440   13.5910 O      3064 WAT       0.0623
   3065 WAT         2.6590   21.3440   23.3410 O      3065 WAT       0.0579
   3066 WAT         2.6590   21.3440   23.5910 O      3066 WAT       0.0797
   3067 WAT         2.6590   21.3440   23.8410 O      3067 WAT       0.0877
   3068 WAT         2.6590   21.3440   24.0910 O      3068 WAT       0.0779
   3069 WAT         2.6590   21.3440   24.3410 O      3069 WAT       0.0568
   3070 WAT         2.6590   21.5940   10.3410 O      3070 WAT       0.0534
   3071 WAT         2.6590   21.5940   10.5910 O      3071 WAT       0.0599
   3072 WAT         2.6590   21.5940   10.8410 O      3072 WAT       0.0591
   3073 WAT         2.6590   21.5940   11.0910 O      3073 WAT       0.0506
   3074 WAT         2.6590   21.5940   12.3410 O      3074 WAT       0.0454
   3075 WAT         2.6590   21.5940   12.5910 O      3075 WAT       0.0590
   3076 WAT         2.6590   21.5940   12.8410 O      3076 WAT       0.0708
   3077 WAT         2.6590   21.5940   13.0910 O      3077 WAT       0.0752
   3078 WAT         2.6590   21.5940   13.3410 O      3078 WAT       0.0693
   3079 WAT         2.6590   21.5940   13.5910 O      3079 WAT       0.0548
   3080 WAT         2.6590   21.5940   23.3410 O      3080 WAT       0.0643
   3081 WAT         2.6590   21.5940   23.5910 O      3081 WAT       0.0946
   3082 WAT         2.6590   21.5940   23.8410 O      3082 WAT       0.1065
   3083 WAT         2.6590   21.5940   24.0910 O      3083 WAT       0.0941
   3084 WAT         2.6590   21.5940   24.3410 O      3084 WAT       0.0676
   3085 WAT         2.6590   21.8440   10.3410 O      3085 WAT       0.0496
   3086 WAT         2.6590   21.8440   10.5910 O      3086 WAT       0.0565
   3087 WAT         2.6590   21.8440   10.8410 O      3087 WAT       0.0568
   3088 WAT         2.6590   21.8440   11.0910 O      3088 WAT       0.0494
   3089 WAT         2.6590   21.8440   12.5910 O      3089 WAT       0.0493
   3090 WAT         2.6590   21.8440   12.8410 O      3090 WAT       0.0597
   3091 WAT         2.6590   21.8440   13.0910 O      3091 WAT       0.0638
   3092 WAT         2.6590   21.8440   13.3410 O      3092 WAT       0.0588
   3093 WAT         2.6590   21.8440   13.5910 O      3093 WAT       0.0463
   3094 WAT         2.6590   21.8440   23.3410 O      3094 WAT       0.0671
   3095 WAT         2.6590   21.8440   23.5910 O      3095 WAT       0.1027
   3096 WAT         2.6590   21.8440   23.8410 O      3096 WAT       0.1164
   3097 WAT         2.6590   21.8440   24.0910 O      3097 WAT       0.1011
   3098 WAT         2.6590   21.8440   24.3410 O      3098 WAT       0.0706
   3099 WAT         2.6590   22.0940   13.0910 O      3099 WAT       0.0490
   3100 WAT         2.6590   22.0940   13.3410 O      3100 WAT       0.0465
   3101 WAT         2.6590   22.0940   23.3410 O      3101 WAT       0.0587
   3102 WAT         2.6590   22.0940   23.5910 O      3102 WAT       0.0921
   3103 WAT         2.6590   22.0940   23.8410 O      3103 WAT       0.1048
   3104 WAT         2.6590   22.0940   24.0910 O      3104 WAT       0.0897
   3105 WAT         2.6590   22.0940   24.3410 O      3105 WAT       0.0607
   3106 WAT         2.6590   22.3440    7.8410 O      3106 WAT       0.0533
   3107 WAT         2.6590   22.3440    8.0910 O      3107 WAT       0.0629
   3108 WAT         2.6590   22.3440    8.3410 O      3108 WAT       0.0649
   3109 WAT         2.6590   22.3440    8.5910 O      3109 WAT       0.0569
   3110 WAT         2.6590   22.3440   23.5910 O      3110 WAT       0.0628
   3111 WAT         2.6590   22.3440   23.8410 O      3111 WAT       0.0725
   3112 WAT         2.6590   22.3440   24.0910 O      3112 WAT       0.0620
   3113 WAT         2.6590   22.5940    7.3410 O      3113 WAT       0.0457
   3114 WAT         2.6590   22.5940    7.5910 O      3114 WAT       0.0653
   3115 WAT         2.6590   22.5940    7.8410 O      3115 WAT       0.0889
   3116 WAT         2.6590   22.5940    8.0910 O      3116 WAT       0.1101
   3117 WAT         2.6590   22.5940    8.3410 O      3117 WAT       0.1187
   3118 WAT         2.6590   22.5940    8.5910 O      3118 WAT       0.1074
   3119 WAT         2.6590   22.5940    8.8410 O      3119 WAT       0.0795
   3120 WAT         2.6590   22.5940    9.0910 O      3120 WAT       0.0479
   3121 WAT         2.6590   22.8440    7.3410 O      3121 WAT       0.0509
   3122 WAT         2.6590   22.8440    7.5910 O      3122 WAT       0.0735
   3123 WAT         2.6590   22.8440    7.8410 O      3123 WAT       0.1042
   3124 WAT         2.6590   22.8440    8.0910 O      3124 WAT       0.1358
   3125 WAT         2.6590   22.8440    8.3410 O      3125 WAT       0.1541
   3126 WAT         2.6590   22.8440    8.5910 O      3126 WAT       0.1458
   3127 WAT         2.6590   22.8440    8.8410 O      3127 WAT       0.1108
   3128 WAT         2.6590   22.8440    9.0910 O      3128 WAT       0.0660
   3129 WAT         2.6590   23.0940    7.5910 O      3129 WAT       0.0583
   3130 WAT         2.6590   23.0940    7.8410 O      3130 WAT       0.0855
   3131 WAT         2.6590   23.0940    8.0910 O      3131 WAT       0.1173
   3132 WAT         2.6590   23.0940    8.3410 O      3132 WAT       0.1407
   3133 WAT         2.6590   23.0940    8.5910 O      3133 WAT       0.1401
   3134 WAT         2.6590   23.0940    8.8410 O      3134 WAT       0.1107
   3135 WAT         2.6590   23.0940    9.0910 O      3135 WAT       0.0670
   3136 WAT         2.6590   23.3440    7.8410 O      3136 WAT       0.0495
   3137 WAT         2.6590   23.3440    8.0910 O      3137 WAT       0.0715
   3138 WAT         2.6590   23.3440    8.3410 O      3138 WAT       0.0910
   3139 WAT         2.6590   23.3440    8.5910 O      3139 WAT       0.0960
   3140 WAT         2.6590   23.3440    8.8410 O      3140 WAT       0.0797
   3141 WAT         2.6590   23.3440    9.0910 O      3141 WAT       0.0498
   3142 WAT         2.6590   23.5940    8.5910 O      3142 WAT       0.0474
   3143 WAT         2.6590   23.8440    5.3410 O      3143 WAT       0.0522
   3144 WAT         2.6590   23.8440    5.5910 O      3144 WAT       0.0505
   3145 WAT         2.6590   24.0940    5.0910 O      3145 WAT       0.0509
   3146 WAT         2.6590   24.0940    5.3410 O      3146 WAT       0.0562
   3147 WAT         2.6590   24.0940    5.5910 O      3147 WAT       0.0481
   3148 WAT         2.6590   24.3440    5.0910 O      3148 WAT       0.0522
   3149 WAT         2.6590   24.3440    5.3410 O      3149 WAT       0.0515
   3150 WAT         2.6590   24.5940    5.0910 O      3150 WAT       0.0459
   3151 WAT         2.6590   25.8440    3.5910 O      3151 WAT       0.0470
   3152 WAT         2.6590   26.0940    3.3410 O      3152 WAT       0.0458
   3153 WAT         2.6590   26.0940    3.5910 O      3153 WAT       0.0482
   3154 WAT         2.6590   26.3440    3.5910 O      3154 WAT       0.0469
   3155 WAT         2.6590   29.3440    4.3410 O      3155 WAT       0.0616
   3156 WAT         2.6590   29.3440    4.5910 O      3156 WAT       0.0741
   3157 WAT         2.6590   29.3440    4.8410 O      3157 WAT       0.0774
   3158 WAT         2.6590   29.3440    5.0910 O      3158 WAT       0.0719
   3159 WAT         2.6590   29.3440    5.3410 O      3159 WAT       0.0610
   3160 WAT         2.6590   29.3440    5.5910 O      3160 WAT       0.0479
   3161 WAT         2.6590   29.5940    3.8410 O      3161 WAT       0.0455
   3162 WAT         2.6590   29.5940    4.0910 O      3162 WAT       0.0739
   3163 WAT         2.6590   29.5940    4.3410 O      3163 WAT       0.1035
   3164 WAT         2.6590   29.5940    4.5910 O      3164 WAT       0.1229
   3165 WAT         2.6590   29.5940    4.8410 O      3165 WAT       0.1252
   3166 WAT         2.6590   29.5940    5.0910 O      3166 WAT       0.1132
   3167 WAT         2.6590   29.5940    5.3410 O      3167 WAT       0.0935
   3168 WAT         2.6590   29.5940    5.5910 O      3168 WAT       0.0721
   3169 WAT         2.6590   29.5940    5.8410 O      3169 WAT       0.0521
   3170 WAT         2.6590   29.8440    3.8410 O      3170 WAT       0.0648
   3171 WAT         2.6590   29.8440    4.0910 O      3171 WAT       0.1006
   3172 WAT         2.6590   29.8440    4.3410 O      3172 WAT       0.1343
   3173 WAT         2.6590   29.8440    4.5910 O      3173 WAT       0.1517
   3174 WAT         2.6590   29.8440    4.8410 O      3174 WAT       0.1474
   3175 WAT         2.6590   29.8440    5.0910 O      3175 WAT       0.1270
   3176 WAT         2.6590   29.8440    5.3410 O      3176 WAT       0.1005
   3177 WAT         2.6590   29.8440    5.5910 O      3177 WAT       0.0750
   3178 WAT         2.6590   29.8440    5.8410 O      3178 WAT       0.0532
   3179 WAT         2.6590   30.0940    3.5910 O      3179 WAT       0.0488
   3180 WAT         2.6590   30.0940    3.8410 O      3180 WAT       0.0747
   3181 WAT         2.6590   30.0940    4.0910 O      3181 WAT       0.1049
   3182 WAT         2.6590   30.0940    4.3410 O      3182 WAT       0.1289
   3183 WAT         2.6590   30.0940    4.5910 O      3183 WAT       0.1357
   3184 WAT         2.6590   30.0940    4.8410 O      3184 WAT       0.1235
   3185 WAT         2.6590   30.0940    5.0910 O      3185 WAT       0.0998
   3186 WAT         2.6590   30.0940    5.3410 O      3186 WAT       0.0744
   3187 WAT         2.6590   30.0940    5.5910 O      3187 WAT       0.0528
   3188 WAT         2.6590   30.3440    3.5910 O      3188 WAT       0.0515
   3189 WAT         2.6590   30.3440    3.8410 O      3189 WAT       0.0672
   3190 WAT         2.6590   30.3440    4.0910 O      3190 WAT       0.0819
   3191 WAT         2.6590   30.3440    4.3410 O      3191 WAT       0.0898
   3192 WAT         2.6590   30.3440    4.5910 O      3192 WAT       0.0864
   3193 WAT         2.6590   30.3440    4.8410 O      3193 WAT       0.0726
   3194 WAT         2.6590   30.3440    5.0910 O      3194 WAT       0.0542
   3195 WAT         2.6590   30.5940    3.8410 O      3195 WAT       0.0472
   3196 WAT         2.6590   30.5940    4.0910 O      3196 WAT       0.0476
   3197 WAT         2.6590   31.0940   14.8410 O      3197 WAT       0.0478
   3198 WAT         2.6590   31.0940   15.0910 O      3198 WAT       0.0450
   3199 WAT         2.9090    8.3440   27.3410 O      3199 WAT       0.0453
   3200 WAT         2.9090    8.3440   28.8410 O      3200 WAT       0.0496
   3201 WAT         2.9090    8.3440   29.0910 O      3201 WAT       0.0528
   3202 WAT         2.9090    8.3440   29.3410 O      3202 WAT       0.0468
   3203 WAT         2.9090   13.8440   28.0910 O      3203 WAT       0.0461
   3204 WAT         2.9090   13.8440   28.3410 O      3204 WAT       0.0487
   3205 WAT         2.9090   13.8440   28.5910 O      3205 WAT       0.0478
   3206 WAT         2.9090   14.0940   28.0910 O      3206 WAT       0.0483
   3207 WAT         2.9090   14.0940   28.3410 O      3207 WAT       0.0549
   3208 WAT         2.9090   14.0940   28.5910 O      3208 WAT       0.0563
   3209 WAT         2.9090   14.0940   28.8410 O      3209 WAT       0.0531
   3210 WAT         2.9090   14.0940   29.0910 O      3210 WAT       0.0464
   3211 WAT         2.9090   14.3440   28.0910 O      3211 WAT       0.0521
   3212 WAT         2.9090   14.3440   28.3410 O      3212 WAT       0.0614
   3213 WAT         2.9090   14.3440   28.5910 O      3213 WAT       0.0637
   3214 WAT         2.9090   14.3440   28.8410 O      3214 WAT       0.0596
   3215 WAT         2.9090   14.3440   29.0910 O      3215 WAT       0.0510
   3216 WAT         2.9090   14.5940   28.0910 O      3216 WAT       0.0550
   3217 WAT         2.9090   14.5940   28.3410 O      3217 WAT       0.0631
   3218 WAT         2.9090   14.5940   28.5910 O      3218 WAT       0.0638
   3219 WAT         2.9090   14.5940   28.8410 O      3219 WAT       0.0582
   3220 WAT         2.9090   14.5940   29.0910 O      3220 WAT       0.0485
   3221 WAT         2.9090   14.8440   28.0910 O      3221 WAT       0.0533
   3222 WAT         2.9090   14.8440   28.3410 O      3222 WAT       0.0571
   3223 WAT         2.9090   14.8440   28.5910 O      3223 WAT       0.0544
   3224 WAT         2.9090   14.8440   28.8410 O      3224 WAT       0.0473
   3225 WAT         2.9090   15.0940   28.0910 O      3225 WAT       0.0462
   3226 WAT         2.9090   16.3440   24.5910 O      3226 WAT       0.0452
   3227 WAT         2.9090   16.5940   24.3410 O      3227 WAT       0.0543
   3228 WAT         2.9090   16.5940   24.5910 O      3228 WAT       0.0585
   3229 WAT         2.9090   16.5940   24.8410 O      3229 WAT       0.0552
   3230 WAT         2.9090   16.5940   25.0910 O      3230 WAT       0.0464
   3231 WAT         2.9090   16.8440   24.0910 O      3231 WAT       0.0509
   3232 WAT         2.9090   16.8440   24.3410 O      3232 WAT       0.0639
   3233 WAT         2.9090   16.8440   24.5910 O      3233 WAT       0.0708
   3234 WAT         2.9090   16.8440   24.8410 O      3234 WAT       0.0678
   3235 WAT         2.9090   16.8440   25.0910 O      3235 WAT       0.0570
   3236 WAT         2.9090   17.0940   24.0910 O      3236 WAT       0.0546
   3237 WAT         2.9090   17.0940   24.3410 O      3237 WAT       0.0695
   3238 WAT         2.9090   17.0940   24.5910 O      3238 WAT       0.0782
   3239 WAT         2.9090   17.0940   24.8410 O      3239 WAT       0.0760
   3240 WAT         2.9090   17.0940   25.0910 O      3240 WAT       0.0641
   3241 WAT         2.9090   17.0940   25.3410 O      3241 WAT       0.0491
   3242 WAT         2.9090   17.3440   24.0910 O      3242 WAT       0.0551
   3243 WAT         2.9090   17.3440   24.3410 O      3243 WAT       0.0699
   3244 WAT         2.9090   17.3440   24.5910 O      3244 WAT       0.0786
   3245 WAT         2.9090   17.3440   24.8410 O      3245 WAT       0.0766
   3246 WAT         2.9090   17.3440   25.0910 O      3246 WAT       0.0646
   3247 WAT         2.9090   17.3440   25.3410 O      3247 WAT       0.0487
   3248 WAT         2.9090   17.5940   24.0910 O      3248 WAT       0.0527
   3249 WAT         2.9090   17.5940   24.3410 O      3249 WAT       0.0650
   3250 WAT         2.9090   17.5940   24.5910 O      3250 WAT       0.0718
   3251 WAT         2.9090   17.5940   24.8410 O      3251 WAT       0.0693
   3252 WAT         2.9090   17.5940   25.0910 O      3252 WAT       0.0579
   3253 WAT         2.9090   17.8440   24.0910 O      3253 WAT       0.0481
   3254 WAT         2.9090   17.8440   24.3410 O      3254 WAT       0.0569
   3255 WAT         2.9090   17.8440   24.5910 O      3255 WAT       0.0611
   3256 WAT         2.9090   17.8440   24.8410 O      3256 WAT       0.0577
   3257 WAT         2.9090   17.8440   25.0910 O      3257 WAT       0.0476
   3258 WAT         2.9090   18.0940   24.3410 O      3258 WAT       0.0488
   3259 WAT         2.9090   18.0940   24.5910 O      3259 WAT       0.0510
   3260 WAT         2.9090   18.0940   24.8410 O      3260 WAT       0.0472
   3261 WAT         2.9090   18.3440   16.0910 O      3261 WAT       0.0463
   3262 WAT         2.9090   18.3440   16.3410 O      3262 WAT       0.0450
   3263 WAT         2.9090   18.3440   29.0910 O      3263 WAT       0.0727
   3264 WAT         2.9090   18.3440   29.3410 O      3264 WAT       0.0939
   3265 WAT         2.9090   18.3440   29.5910 O      3265 WAT       0.0802
   3266 WAT         2.9090   18.5940   15.5910 O      3266 WAT       0.0484
   3267 WAT         2.9090   18.5940   15.8410 O      3267 WAT       0.0540
   3268 WAT         2.9090   18.5940   16.0910 O      3268 WAT       0.0566
   3269 WAT         2.9090   18.5940   16.3410 O      3269 WAT       0.0553
   3270 WAT         2.9090   18.5940   16.5910 O      3270 WAT       0.0506
   3271 WAT         2.9090   18.5940   28.8410 O      3271 WAT       0.0674
   3272 WAT         2.9090   18.5940   29.0910 O      3272 WAT       0.1282
   3273 WAT         2.9090   18.5940   29.3410 O      3273 WAT       0.1720
   3274 WAT         2.9090   18.5940   29.5910 O      3274 WAT       0.1504
   3275 WAT         2.9090   18.8440   15.3410 O      3275 WAT       0.0517
   3276 WAT         2.9090   18.8440   15.5910 O      3276 WAT       0.0603
   3277 WAT         2.9090   18.8440   15.8410 O      3277 WAT       0.0677
   3278 WAT         2.9090   18.8440   16.0910 O      3278 WAT       0.0715
   3279 WAT         2.9090   18.8440   16.3410 O      3279 WAT       0.0699
   3280 WAT         2.9090   18.8440   16.5910 O      3280 WAT       0.0636
   3281 WAT         2.9090   18.8440   16.8410 O      3281 WAT       0.0545
   3282 WAT         2.9090   18.8440   28.8410 O      3282 WAT       0.0756
   3283 WAT         2.9090   18.8440   29.0910 O      3283 WAT       0.1516
   3284 WAT         2.9090   18.8440   29.3410 O      3284 WAT       0.2106
   3285 WAT         2.9090   18.8440   29.5910 O      3285 WAT       0.1882
   3286 WAT         2.9090   19.0940   14.8410 O      3286 WAT       0.0458
   3287 WAT         2.9090   19.0940   15.0910 O      3287 WAT       0.0547
   3288 WAT         2.9090   19.0940   15.3410 O      3288 WAT       0.0639
   3289 WAT         2.9090   19.0940   15.5910 O      3289 WAT       0.0726
   3290 WAT         2.9090   19.0940   15.8410 O      3290 WAT       0.0802
   3291 WAT         2.9090   19.0940   16.0910 O      3291 WAT       0.0843
   3292 WAT         2.9090   19.0940   16.3410 O      3292 WAT       0.0821
   3293 WAT         2.9090   19.0940   16.5910 O      3293 WAT       0.0743
   3294 WAT         2.9090   19.0940   16.8410 O      3294 WAT       0.0636
   3295 WAT         2.9090   19.0940   17.0910 O      3295 WAT       0.0525
   3296 WAT         2.9090   19.0940   28.8410 O      3296 WAT       0.0571
   3297 WAT         2.9090   19.0940   29.0910 O      3297 WAT       0.1207
   3298 WAT         2.9090   19.0940   29.3410 O      3298 WAT       0.1729
   3299 WAT         2.9090   19.0940   29.5910 O      3299 WAT       0.1573
   3300 WAT         2.9090   19.3440   14.5910 O      3300 WAT       0.0464
   3301 WAT         2.9090   19.3440   14.8410 O      3301 WAT       0.0558
   3302 WAT         2.9090   19.3440   15.0910 O      3302 WAT       0.0644
   3303 WAT         2.9090   19.3440   15.3410 O      3303 WAT       0.0715
   3304 WAT         2.9090   19.3440   15.5910 O      3304 WAT       0.0773
   3305 WAT         2.9090   19.3440   15.8410 O      3305 WAT       0.0824
   3306 WAT         2.9090   19.3440   16.0910 O      3306 WAT       0.0851
   3307 WAT         2.9090   19.3440   16.3410 O      3307 WAT       0.0824
   3308 WAT         2.9090   19.3440   16.5910 O      3308 WAT       0.0744
   3309 WAT         2.9090   19.3440   16.8410 O      3309 WAT       0.0641
   3310 WAT         2.9090   19.3440   17.0910 O      3310 WAT       0.0541
   3311 WAT         2.9090   19.3440   17.3410 O      3311 WAT       0.0459
   3312 WAT         2.9090   19.3440   19.3410 O      3312 WAT       0.0462
   3313 WAT         2.9090   19.3440   19.5910 O      3313 WAT       0.0508
   3314 WAT         2.9090   19.3440   19.8410 O      3314 WAT       0.0576
   3315 WAT         2.9090   19.3440   20.0910 O      3315 WAT       0.0656
   3316 WAT         2.9090   19.3440   20.3410 O      3316 WAT       0.0718
   3317 WAT         2.9090   19.3440   20.5910 O      3317 WAT       0.0721
   3318 WAT         2.9090   19.3440   20.8410 O      3318 WAT       0.0639
   3319 WAT         2.9090   19.3440   21.0910 O      3319 WAT       0.0492
   3320 WAT         2.9090   19.3440   29.0910 O      3320 WAT       0.0649
   3321 WAT         2.9090   19.3440   29.3410 O      3321 WAT       0.0956
   3322 WAT         2.9090   19.3440   29.5910 O      3322 WAT       0.0884
   3323 WAT         2.9090   19.5940   14.5910 O      3323 WAT       0.0534
   3324 WAT         2.9090   19.5940   14.8410 O      3324 WAT       0.0607
   3325 WAT         2.9090   19.5940   15.0910 O      3325 WAT       0.0653
   3326 WAT         2.9090   19.5940   15.3410 O      3326 WAT       0.0672
   3327 WAT         2.9090   19.5940   15.5910 O      3327 WAT       0.0678
   3328 WAT         2.9090   19.5940   15.8410 O      3328 WAT       0.0688
   3329 WAT         2.9090   19.5940   16.0910 O      3329 WAT       0.0693
   3330 WAT         2.9090   19.5940   16.3410 O      3330 WAT       0.0667
   3331 WAT         2.9090   19.5940   16.5910 O      3331 WAT       0.0604
   3332 WAT         2.9090   19.5940   16.8410 O      3332 WAT       0.0531
   3333 WAT         2.9090   19.5940   17.0910 O      3333 WAT       0.0468
   3334 WAT         2.9090   19.5940   19.3410 O      3334 WAT       0.0492
   3335 WAT         2.9090   19.5940   19.5910 O      3335 WAT       0.0599
   3336 WAT         2.9090   19.5940   19.8410 O      3336 WAT       0.0739
   3337 WAT         2.9090   19.5940   20.0910 O      3337 WAT       0.0889
   3338 WAT         2.9090   19.5940   20.3410 O      3338 WAT       0.1006
   3339 WAT         2.9090   19.5940   20.5910 O      3339 WAT       0.1040
   3340 WAT         2.9090   19.5940   20.8410 O      3340 WAT       0.0954
   3341 WAT         2.9090   19.5940   21.0910 O      3341 WAT       0.0770
   3342 WAT         2.9090   19.5940   21.3410 O      3342 WAT       0.0562
   3343 WAT         2.9090   19.8440   14.3410 O      3343 WAT       0.0490
   3344 WAT         2.9090   19.8440   14.5910 O      3344 WAT       0.0539
   3345 WAT         2.9090   19.8440   14.8410 O      3345 WAT       0.0555
   3346 WAT         2.9090   19.8440   15.0910 O      3346 WAT       0.0539
   3347 WAT         2.9090   19.8440   15.3410 O      3347 WAT       0.0503
   3348 WAT         2.9090   19.8440   15.5910 O      3348 WAT       0.0467
   3349 WAT         2.9090   19.8440   19.3410 O      3349 WAT       0.0451
   3350 WAT         2.9090   19.8440   19.5910 O      3350 WAT       0.0586
   3351 WAT         2.9090   19.8440   19.8410 O      3351 WAT       0.0747
   3352 WAT         2.9090   19.8440   20.0910 O      3352 WAT       0.0904
   3353 WAT         2.9090   19.8440   20.3410 O      3353 WAT       0.1024
   3354 WAT         2.9090   19.8440   20.5910 O      3354 WAT       0.1069
   3355 WAT         2.9090   19.8440   20.8410 O      3355 WAT       0.1010
   3356 WAT         2.9090   19.8440   21.0910 O      3356 WAT       0.0860
   3357 WAT         2.9090   19.8440   21.3410 O      3357 WAT       0.0680
   3358 WAT         2.9090   19.8440   21.5910 O      3358 WAT       0.0528
   3359 WAT         2.9090   20.0940   14.0910 O      3359 WAT       0.0462
   3360 WAT         2.9090   20.0940   14.3410 O      3360 WAT       0.0482
   3361 WAT         2.9090   20.0940   14.5910 O      3361 WAT       0.0464
   3362 WAT         2.9090   20.0940   19.5910 O      3362 WAT       0.0457
   3363 WAT         2.9090   20.0940   19.8410 O      3363 WAT       0.0568
   3364 WAT         2.9090   20.0940   20.0910 O      3364 WAT       0.0663
   3365 WAT         2.9090   20.0940   20.3410 O      3365 WAT       0.0729
   3366 WAT         2.9090   20.0940   20.5910 O      3366 WAT       0.0756
   3367 WAT         2.9090   20.0940   20.8410 O      3367 WAT       0.0729
   3368 WAT         2.9090   20.0940   21.0910 O      3368 WAT       0.0657
   3369 WAT         2.9090   20.0940   21.3410 O      3369 WAT       0.0572
   3370 WAT         2.9090   20.0940   21.5910 O      3370 WAT       0.0501
   3371 WAT         2.9090   20.3440   13.5910 O      3371 WAT       0.0461
   3372 WAT         2.9090   20.3440   13.8410 O      3372 WAT       0.0480
   3373 WAT         2.9090   20.3440   14.0910 O      3373 WAT       0.0466
   3374 WAT         2.9090   20.5940   12.8410 O      3374 WAT       0.0490
   3375 WAT         2.9090   20.5940   13.0910 O      3375 WAT       0.0551
   3376 WAT         2.9090   20.5940   13.3410 O      3376 WAT       0.0582
   3377 WAT         2.9090   20.5940   13.5910 O      3377 WAT       0.0573
   3378 WAT         2.9090   20.5940   13.8410 O      3378 WAT       0.0518
   3379 WAT         2.9090   20.5940   23.5910 O      3379 WAT       0.0460
   3380 WAT         2.9090   20.5940   23.8410 O      3380 WAT       0.0453
   3381 WAT         2.9090   20.8440   12.5910 O      3381 WAT       0.0546
   3382 WAT         2.9090   20.8440   12.8410 O      3382 WAT       0.0647
   3383 WAT         2.9090   20.8440   13.0910 O      3383 WAT       0.0711
   3384 WAT         2.9090   20.8440   13.3410 O      3384 WAT       0.0710
   3385 WAT         2.9090   20.8440   13.5910 O      3385 WAT       0.0636
   3386 WAT         2.9090   20.8440   13.8410 O      3386 WAT       0.0508
   3387 WAT         2.9090   20.8440   23.5910 O      3387 WAT       0.0526
   3388 WAT         2.9090   20.8440   23.8410 O      3388 WAT       0.0524
   3389 WAT         2.9090   21.0940   12.3410 O      3389 WAT       0.0496
   3390 WAT         2.9090   21.0940   12.5910 O      3390 WAT       0.0637
   3391 WAT         2.9090   21.0940   12.8410 O      3391 WAT       0.0752
   3392 WAT         2.9090   21.0940   13.0910 O      3392 WAT       0.0801
   3393 WAT         2.9090   21.0940   13.3410 O      3393 WAT       0.0756
   3394 WAT         2.9090   21.0940   13.5910 O      3394 WAT       0.0625
   3395 WAT         2.9090   21.0940   23.3410 O      3395 WAT       0.0462
   3396 WAT         2.9090   21.0940   23.5910 O      3396 WAT       0.0598
   3397 WAT         2.9090   21.0940   23.8410 O      3397 WAT       0.0619
   3398 WAT         2.9090   21.0940   24.0910 O      3398 WAT       0.0508
   3399 WAT         2.9090   21.3440   10.3410 O      3399 WAT       0.0492
   3400 WAT         2.9090   21.3440   10.5910 O      3400 WAT       0.0505
   3401 WAT         2.9090   21.3440   10.8410 O      3401 WAT       0.0466
   3402 WAT         2.9090   21.3440   12.3410 O      3402 WAT       0.0501
   3403 WAT         2.9090   21.3440   12.5910 O      3403 WAT       0.0649
   3404 WAT         2.9090   21.3440   12.8410 O      3404 WAT       0.0761
   3405 WAT         2.9090   21.3440   13.0910 O      3405 WAT       0.0789
   3406 WAT         2.9090   21.3440   13.3410 O      3406 WAT       0.0712
   3407 WAT         2.9090   21.3440   13.5910 O      3407 WAT       0.0553
   3408 WAT         2.9090   21.3440   23.3410 O      3408 WAT       0.0479
   3409 WAT         2.9090   21.3440   23.5910 O      3409 WAT       0.0675
   3410 WAT         2.9090   21.3440   23.8410 O      3410 WAT       0.0732
   3411 WAT         2.9090   21.3440   24.0910 O      3411 WAT       0.0615
   3412 WAT         2.9090   21.5940   10.3410 O      3412 WAT       0.0498
   3413 WAT         2.9090   21.5940   10.5910 O      3413 WAT       0.0535
   3414 WAT         2.9090   21.5940   10.8410 O      3414 WAT       0.0512
   3415 WAT         2.9090   21.5940   12.5910 O      3415 WAT       0.0574
   3416 WAT         2.9090   21.5940   12.8410 O      3416 WAT       0.0672
   3417 WAT         2.9090   21.5940   13.0910 O      3417 WAT       0.0685
   3418 WAT         2.9090   21.5940   13.3410 O      3418 WAT       0.0603
   3419 WAT         2.9090   21.5940   13.5910 O      3419 WAT       0.0453
   3420 WAT         2.9090   21.5940   23.3410 O      3420 WAT       0.0489
   3421 WAT         2.9090   21.5940   23.5910 O      3421 WAT       0.0737
   3422 WAT         2.9090   21.5940   23.8410 O      3422 WAT       0.0827
   3423 WAT         2.9090   21.5940   24.0910 O      3423 WAT       0.0705
   3424 WAT         2.9090   21.5940   24.3410 O      3424 WAT       0.0469
   3425 WAT         2.9090   21.8440   10.5910 O      3425 WAT       0.0461
   3426 WAT         2.9090   21.8440   12.8410 O      3426 WAT       0.0516
   3427 WAT         2.9090   21.8440   13.0910 O      3427 WAT       0.0529
   3428 WAT         2.9090   21.8440   13.3410 O      3428 WAT       0.0464
   3429 WAT         2.9090   21.8440   23.3410 O      3429 WAT       0.0468
   3430 WAT         2.9090   21.8440   23.5910 O      3430 WAT       0.0735
   3431 WAT         2.9090   21.8440   23.8410 O      3431 WAT       0.0836
   3432 WAT         2.9090   21.8440   24.0910 O      3432 WAT       0.0710
   3433 WAT         2.9090   21.8440   24.3410 O      3433 WAT       0.0468
   3434 WAT         2.9090   22.0940   23.5910 O      3434 WAT       0.0612
   3435 WAT         2.9090   22.0940   23.8410 O      3435 WAT       0.0700
   3436 WAT         2.9090   22.0940   24.0910 O      3436 WAT       0.0589
   3437 WAT         2.9090   22.3440    7.5910 O      3437 WAT       0.0559
   3438 WAT         2.9090   22.3440    7.8410 O      3438 WAT       0.0746
   3439 WAT         2.9090   22.3440    8.0910 O      3439 WAT       0.0895
   3440 WAT         2.9090   22.3440    8.3410 O      3440 WAT       0.0939
   3441 WAT         2.9090   22.3440    8.5910 O      3441 WAT       0.0840
   3442 WAT         2.9090   22.3440    8.8410 O      3442 WAT       0.0629
   3443 WAT         2.9090   22.3440   23.8410 O      3443 WAT       0.0454
   3444 WAT         2.9090   22.5940    7.3410 O      3444 WAT       0.0529
   3445 WAT         2.9090   22.5940    7.5910 O      3445 WAT       0.0780
   3446 WAT         2.9090   22.5940    7.8410 O      3446 WAT       0.1090
   3447 WAT         2.9090   22.5940    8.0910 O      3447 WAT       0.1384
   3448 WAT         2.9090   22.5940    8.3410 O      3448 WAT       0.1533
   3449 WAT         2.9090   22.5940    8.5910 O      3449 WAT       0.1428
   3450 WAT         2.9090   22.5940    8.8410 O      3450 WAT       0.1087
   3451 WAT         2.9090   22.5940    9.0910 O      3451 WAT       0.0667
   3452 WAT         2.9090   22.8440    7.3410 O      3452 WAT       0.0498
   3453 WAT         2.9090   22.8440    7.5910 O      3453 WAT       0.0748
   3454 WAT         2.9090   22.8440    7.8410 O      3454 WAT       0.1097
   3455 WAT         2.9090   22.8440    8.0910 O      3455 WAT       0.1478
   3456 WAT         2.9090   22.8440    8.3410 O      3456 WAT       0.1735
   3457 WAT         2.9090   22.8440    8.5910 O      3457 WAT       0.1696
   3458 WAT         2.9090   22.8440    8.8410 O      3458 WAT       0.1330
   3459 WAT         2.9090   22.8440    9.0910 O      3459 WAT       0.0813
   3460 WAT         2.9090   23.0940    7.5910 O      3460 WAT       0.0494
   3461 WAT         2.9090   23.0940    7.8410 O      3461 WAT       0.0760
   3462 WAT         2.9090   23.0940    8.0910 O      3462 WAT       0.1088
   3463 WAT         2.9090   23.0940    8.3410 O      3463 WAT       0.1355
   3464 WAT         2.9090   23.0940    8.5910 O      3464 WAT       0.1393
   3465 WAT         2.9090   23.0940    8.8410 O      3465 WAT       0.1131
   3466 WAT         2.9090   23.0940    9.0910 O      3466 WAT       0.0698
   3467 WAT         2.9090   23.3440    8.0910 O      3467 WAT       0.0553
   3468 WAT         2.9090   23.3440    8.3410 O      3468 WAT       0.0733
   3469 WAT         2.9090   23.3440    8.5910 O      3469 WAT       0.0796
   3470 WAT         2.9090   23.3440    8.8410 O      3470 WAT       0.0672
   3471 WAT         2.9090   23.5940    5.3410 O      3471 WAT       0.0536
   3472 WAT         2.9090   23.5940    5.5910 O      3472 WAT       0.0524
   3473 WAT         2.9090   23.8440    5.0910 O      3473 WAT       0.0582
   3474 WAT         2.9090   23.8440    5.3410 O      3474 WAT       0.0655
   3475 WAT         2.9090   23.8440    5.5910 O      3475 WAT       0.0563
   3476 WAT         2.9090   24.0940    4.8410 O      3476 WAT       0.0510
   3477 WAT         2.9090   24.0940    5.0910 O      3477 WAT       0.0675
   3478 WAT         2.9090   24.0940    5.3410 O      3478 WAT       0.0675
   3479 WAT         2.9090   24.0940    5.5910 O      3479 WAT       0.0508
   3480 WAT         2.9090   24.3440    4.8410 O      3480 WAT       0.0553
   3481 WAT         2.9090   24.3440    5.0910 O      3481 WAT       0.0662
   3482 WAT         2.9090   24.3440    5.3410 O      3482 WAT       0.0587
   3483 WAT         2.9090   24.5940    4.8410 O      3483 WAT       0.0514
   3484 WAT         2.9090   24.5940    5.0910 O      3484 WAT       0.0554
   3485 WAT         2.9090   25.8440    3.5910 O      3485 WAT       0.0460
   3486 WAT         2.9090   26.0940    3.5910 O      3486 WAT       0.0457
   3487 WAT         2.9090   29.3440    4.3410 O      3487 WAT       0.0577
   3488 WAT         2.9090   29.3440    4.5910 O      3488 WAT       0.0684
   3489 WAT         2.9090   29.3440    4.8410 O      3489 WAT       0.0704
   3490 WAT         2.9090   29.3440    5.0910 O      3490 WAT       0.0640
   3491 WAT         2.9090   29.3440    5.3410 O      3491 WAT       0.0526
   3492 WAT         2.9090   29.5940    3.8410 O      3492 WAT       0.0463
   3493 WAT         2.9090   29.5940    4.0910 O      3493 WAT       0.0728
   3494 WAT         2.9090   29.5940    4.3410 O      3494 WAT       0.1012
   3495 WAT         2.9090   29.5940    4.5910 O      3495 WAT       0.1199
   3496 WAT         2.9090   29.5940    4.8410 O      3496 WAT       0.1217
   3497 WAT         2.9090   29.5940    5.0910 O      3497 WAT       0.1088
   3498 WAT         2.9090   29.5940    5.3410 O      3498 WAT       0.0879
   3499 WAT         2.9090   29.5940    5.5910 O      3499 WAT       0.0654
   3500 WAT         2.9090   29.5940    5.8410 O      3500 WAT       0.0453
   3501 WAT         2.9090   29.8440    3.8410 O      3501 WAT       0.0647
   3502 WAT         2.9090   29.8440    4.0910 O      3502 WAT       0.1001
   3503 WAT         2.9090   29.8440    4.3410 O      3503 WAT       0.1351
   3504 WAT         2.9090   29.8440    4.5910 O      3504 WAT       0.1545
   3505 WAT         2.9090   29.8440    4.8410 O      3505 WAT       0.1514
   3506 WAT         2.9090   29.8440    5.0910 O      3506 WAT       0.1304
   3507 WAT         2.9090   29.8440    5.3410 O      3507 WAT       0.1016
   3508 WAT         2.9090   29.8440    5.5910 O      3508 WAT       0.0734
   3509 WAT         2.9090   29.8440    5.8410 O      3509 WAT       0.0499
   3510 WAT         2.9090   30.0940    3.5910 O      3510 WAT       0.0476
   3511 WAT         2.9090   30.0940    3.8410 O      3511 WAT       0.0730
   3512 WAT         2.9090   30.0940    4.0910 O      3512 WAT       0.1048
   3513 WAT         2.9090   30.0940    4.3410 O      3513 WAT       0.1325
   3514 WAT         2.9090   30.0940    4.5910 O      3514 WAT       0.1434
   3515 WAT         2.9090   30.0940    4.8410 O      3515 WAT       0.1332
   3516 WAT         2.9090   30.0940    5.0910 O      3516 WAT       0.1088
   3517 WAT         2.9090   30.0940    5.3410 O      3517 WAT       0.0804
   3518 WAT         2.9090   30.0940    5.5910 O      3518 WAT       0.0553
   3519 WAT         2.9090   30.3440    3.5910 O      3519 WAT       0.0472
   3520 WAT         2.9090   30.3440    3.8410 O      3520 WAT       0.0637
   3521 WAT         2.9090   30.3440    4.0910 O      3521 WAT       0.0814
   3522 WAT         2.9090   30.3440    4.3410 O      3522 WAT       0.0939
   3523 WAT         2.9090   30.3440    4.5910 O      3523 WAT       0.0942
   3524 WAT         2.9090   30.3440    4.8410 O      3524 WAT       0.0818
   3525 WAT         2.9090   30.3440    5.0910 O      3525 WAT       0.0624
   3526 WAT         2.9090   30.5940    4.0910 O      3526 WAT       0.0465
   3527 WAT         2.9090   30.5940    4.3410 O      3527 WAT       0.0474
   3528 WAT         3.1590    8.3440   26.8410 O      3528 WAT       0.0478
   3529 WAT         3.1590    8.3440   27.0910 O      3529 WAT       0.0529
   3530 WAT         3.1590    8.3440   27.3410 O      3530 WAT       0.0504
   3531 WAT         3.1590    8.3440   28.3410 O      3531 WAT       0.0508
   3532 WAT         3.1590    8.3440   28.5910 O      3532 WAT       0.0603
   3533 WAT         3.1590    8.3440   28.8410 O      3533 WAT       0.0643
   3534 WAT         3.1590    8.3440   29.0910 O      3534 WAT       0.0599
   3535 WAT         3.1590    8.3440   29.3410 O      3535 WAT       0.0469
   3536 WAT         3.1590    8.5940   28.3410 O      3536 WAT       0.0482
   3537 WAT         3.1590    8.5940   28.5910 O      3537 WAT       0.0562
   3538 WAT         3.1590    8.5940   28.8410 O      3538 WAT       0.0575
   3539 WAT         3.1590    8.5940   29.0910 O      3539 WAT       0.0510
   3540 WAT         3.1590    8.8440   28.5910 O      3540 WAT       0.0454
   3541 WAT         3.1590    8.8440   28.8410 O      3541 WAT       0.0453
   3542 WAT         3.1590   10.0940   28.3410 O      3542 WAT       0.0489
   3543 WAT         3.1590   10.0940   28.5910 O      3543 WAT       0.0605
   3544 WAT         3.1590   10.0940   28.8410 O      3544 WAT       0.0591
   3545 WAT         3.1590   10.0940   29.0910 O      3545 WAT       0.0462
   3546 WAT         3.1590   10.3440   28.3410 O      3546 WAT       0.0660
   3547 WAT         3.1590   10.3440   28.5910 O      3547 WAT       0.0815
   3548 WAT         3.1590   10.3440   28.8410 O      3548 WAT       0.0805
   3549 WAT         3.1590   10.3440   29.0910 O      3549 WAT       0.0645
   3550 WAT         3.1590   10.5940   28.0910 O      3550 WAT       0.0499
   3551 WAT         3.1590   10.5940   28.3410 O      3551 WAT       0.0765
   3552 WAT         3.1590   10.5940   28.5910 O      3552 WAT       0.0945
   3553 WAT         3.1590   10.5940   28.8410 O      3553 WAT       0.0953
   3554 WAT         3.1590   10.5940   29.0910 O      3554 WAT       0.0792
   3555 WAT         3.1590   10.5940   29.3410 O      3555 WAT       0.0537
   3556 WAT         3.1590   10.8440   28.0910 O      3556 WAT       0.0488
   3557 WAT         3.1590   10.8440   28.3410 O      3557 WAT       0.0736
   3558 WAT         3.1590   10.8440   28.5910 O      3558 WAT       0.0912
   3559 WAT         3.1590   10.8440   28.8410 O      3559 WAT       0.0940
   3560 WAT         3.1590   10.8440   29.0910 O      3560 WAT       0.0813
   3561 WAT         3.1590   10.8440   29.3410 O      3561 WAT       0.0579
   3562 WAT         3.1590   11.0940   28.3410 O      3562 WAT       0.0585
   3563 WAT         3.1590   11.0940   28.5910 O      3563 WAT       0.0723
   3564 WAT         3.1590   11.0940   28.8410 O      3564 WAT       0.0758
   3565 WAT         3.1590   11.0940   29.0910 O      3565 WAT       0.0678
   3566 WAT         3.1590   11.0940   29.3410 O      3566 WAT       0.0504
   3567 WAT         3.1590   11.3440   28.5910 O      3567 WAT       0.0477
   3568 WAT         3.1590   11.3440   28.8410 O      3568 WAT       0.0502
   3569 WAT         3.1590   11.3440   29.0910 O      3569 WAT       0.0460
   3570 WAT         3.1590   13.0940   27.3410 O      3570 WAT       0.0499
   3571 WAT         3.1590   13.0940   27.5910 O      3571 WAT       0.0512
   3572 WAT         3.1590   13.0940   27.8410 O      3572 WAT       0.0479
   3573 WAT         3.1590   13.3440   27.3410 O      3573 WAT       0.0497
   3574 WAT         3.1590   13.3440   27.5910 O      3574 WAT       0.0546
   3575 WAT         3.1590   13.3440   27.8410 O      3575 WAT       0.0542
   3576 WAT         3.1590   13.3440   28.0910 O      3576 WAT       0.0492
   3577 WAT         3.1590   13.5940   27.5910 O      3577 WAT       0.0508
   3578 WAT         3.1590   13.5940   27.8410 O      3578 WAT       0.0555
   3579 WAT         3.1590   13.5940   28.0910 O      3579 WAT       0.0550
   3580 WAT         3.1590   13.5940   28.3410 O      3580 WAT       0.0497
   3581 WAT         3.1590   13.8440   27.8410 O      3581 WAT       0.0542
   3582 WAT         3.1590   13.8440   28.0910 O      3582 WAT       0.0606
   3583 WAT         3.1590   13.8440   28.3410 O      3583 WAT       0.0604
   3584 WAT         3.1590   13.8440   28.5910 O      3584 WAT       0.0546
   3585 WAT         3.1590   13.8440   28.8410 O      3585 WAT       0.0468
   3586 WAT         3.1590   14.0940   27.8410 O      3586 WAT       0.0543
   3587 WAT         3.1590   14.0940   28.0910 O      3587 WAT       0.0686
   3588 WAT         3.1590   14.0940   28.3410 O      3588 WAT       0.0749
   3589 WAT         3.1590   14.0940   28.5910 O      3589 WAT       0.0716
   3590 WAT         3.1590   14.0940   28.8410 O      3590 WAT       0.0622
   3591 WAT         3.1590   14.0940   29.0910 O      3591 WAT       0.0506
   3592 WAT         3.1590   14.3440   27.8410 O      3592 WAT       0.0564
   3593 WAT         3.1590   14.3440   28.0910 O      3593 WAT       0.0763
   3594 WAT         3.1590   14.3440   28.3410 O      3594 WAT       0.0874
   3595 WAT         3.1590   14.3440   28.5910 O      3595 WAT       0.0857
   3596 WAT         3.1590   14.3440   28.8410 O      3596 WAT       0.0745
   3597 WAT         3.1590   14.3440   29.0910 O      3597 WAT       0.0595
   3598 WAT         3.1590   14.5940   27.8410 O      3598 WAT       0.0572
   3599 WAT         3.1590   14.5940   28.0910 O      3599 WAT       0.0770
   3600 WAT         3.1590   14.5940   28.3410 O      3600 WAT       0.0879
   3601 WAT         3.1590   14.5940   28.5910 O      3601 WAT       0.0857
   3602 WAT         3.1590   14.5940   28.8410 O      3602 WAT       0.0736
   3603 WAT         3.1590   14.5940   29.0910 O      3603 WAT       0.0576
   3604 WAT         3.1590   14.8440   27.8410 O      3604 WAT       0.0544
   3605 WAT         3.1590   14.8440   28.0910 O      3605 WAT       0.0681
   3606 WAT         3.1590   14.8440   28.3410 O      3606 WAT       0.0737
   3607 WAT         3.1590   14.8440   28.5910 O      3607 WAT       0.0692
   3608 WAT         3.1590   14.8440   28.8410 O      3608 WAT       0.0577
   3609 WAT         3.1590   15.0940   27.8410 O      3609 WAT       0.0471
   3610 WAT         3.1590   15.0940   28.0910 O      3610 WAT       0.0526
   3611 WAT         3.1590   15.0940   28.3410 O      3611 WAT       0.0518
   3612 WAT         3.1590   15.0940   28.5910 O      3612 WAT       0.0452
   3613 WAT         3.1590   16.0940   24.3410 O      3613 WAT       0.0486
   3614 WAT         3.1590   16.0940   24.5910 O      3614 WAT       0.0462
   3615 WAT         3.1590   16.3440   24.0910 O      3615 WAT       0.0547
   3616 WAT         3.1590   16.3440   24.3410 O      3616 WAT       0.0640
   3617 WAT         3.1590   16.3440   24.5910 O      3617 WAT       0.0645
   3618 WAT         3.1590   16.3440   24.8410 O      3618 WAT       0.0555
   3619 WAT         3.1590   16.5940   23.8410 O      3619 WAT       0.0460
   3620 WAT         3.1590   16.5940   24.0910 O      3620 WAT       0.0640
   3621 WAT         3.1590   16.5940   24.3410 O      3621 WAT       0.0795
   3622 WAT         3.1590   16.5940   24.5910 O      3622 WAT       0.0845
   3623 WAT         3.1590   16.5940   24.8410 O      3623 WAT       0.0755
   3624 WAT         3.1590   16.5940   25.0910 O      3624 WAT       0.0573
   3625 WAT         3.1590   16.8440   23.8410 O      3625 WAT       0.0482
   3626 WAT         3.1590   16.8440   24.0910 O      3626 WAT       0.0699
   3627 WAT         3.1590   16.8440   24.3410 O      3627 WAT       0.0907
   3628 WAT         3.1590   16.8440   24.5910 O      3628 WAT       0.1004
   3629 WAT         3.1590   16.8440   24.8410 O      3629 WAT       0.0926
   3630 WAT         3.1590   16.8440   25.0910 O      3630 WAT       0.0715
   3631 WAT         3.1590   16.8440   25.3410 O      3631 WAT       0.0476
   3632 WAT         3.1590   17.0940   15.5910 O      3632 WAT       0.0450
   3633 WAT         3.1590   17.0940   15.8410 O      3633 WAT       0.0450
   3634 WAT         3.1590   17.0940   23.8410 O      3634 WAT       0.0483
   3635 WAT         3.1590   17.0940   24.0910 O      3635 WAT       0.0711
   3636 WAT         3.1590   17.0940   24.3410 O      3636 WAT       0.0942
   3637 WAT         3.1590   17.0940   24.5910 O      3637 WAT       0.1066
   3638 WAT         3.1590   17.0940   24.8410 O      3638 WAT       0.1004
   3639 WAT         3.1590   17.0940   25.0910 O      3639 WAT       0.0784
   3640 WAT         3.1590   17.0940   25.3410 O      3640 WAT       0.0520
   3641 WAT         3.1590   17.3440   15.3410 O      3641 WAT       0.0453
   3642 WAT         3.1590   17.3440   15.5910 O      3642 WAT       0.0468
   3643 WAT         3.1590   17.3440   15.8410 O      3643 WAT       0.0469
   3644 WAT         3.1590   17.3440   23.8410 O      3644 WAT       0.0469
   3645 WAT         3.1590   17.3440   24.0910 O      3645 WAT       0.0679
   3646 WAT         3.1590   17.3440   24.3410 O      3646 WAT       0.0894
   3647 WAT         3.1590   17.3440   24.5910 O      3647 WAT       0.1011
   3648 WAT         3.1590   17.3440   24.8410 O      3648 WAT       0.0953
   3649 WAT         3.1590   17.3440   25.0910 O      3649 WAT       0.0743
   3650 WAT         3.1590   17.3440   25.3410 O      3650 WAT       0.0488
   3651 WAT         3.1590   17.5940   15.5910 O      3651 WAT       0.0452
   3652 WAT         3.1590   17.5940   15.8410 O      3652 WAT       0.0457
   3653 WAT         3.1590   17.5940   24.0910 O      3653 WAT       0.0614
   3654 WAT         3.1590   17.5940   24.3410 O      3654 WAT       0.0782
   3655 WAT         3.1590   17.5940   24.5910 O      3655 WAT       0.0862
   3656 WAT         3.1590   17.5940   24.8410 O      3656 WAT       0.0797
   3657 WAT         3.1590   17.5940   25.0910 O      3657 WAT       0.0612
   3658 WAT         3.1590   17.8440   24.0910 O      3658 WAT       0.0528
   3659 WAT         3.1590   17.8440   24.3410 O      3659 WAT       0.0638
   3660 WAT         3.1590   17.8440   24.5910 O      3660 WAT       0.0674
   3661 WAT         3.1590   17.8440   24.8410 O      3661 WAT       0.0601
   3662 WAT         3.1590   18.0940   24.3410 O      3662 WAT       0.0502
   3663 WAT         3.1590   18.0940   24.5910 O      3663 WAT       0.0503
   3664 WAT         3.1590   18.3440   16.0910 O      3664 WAT       0.0461
   3665 WAT         3.1590   18.3440   16.3410 O      3665 WAT       0.0461
   3666 WAT         3.1590   18.3440   29.3410 O      3666 WAT       0.0535
   3667 WAT         3.1590   18.3440   29.5910 O      3667 WAT       0.0456
   3668 WAT         3.1590   18.5940   15.8410 O      3668 WAT       0.0504
   3669 WAT         3.1590   18.5940   16.0910 O      3669 WAT       0.0553
   3670 WAT         3.1590   18.5940   16.3410 O      3670 WAT       0.0566
   3671 WAT         3.1590   18.5940   16.5910 O      3671 WAT       0.0543
   3672 WAT         3.1590   18.5940   16.8410 O      3672 WAT       0.0492
   3673 WAT         3.1590   18.5940   29.0910 O      3673 WAT       0.0705
   3674 WAT         3.1590   18.5940   29.3410 O      3674 WAT       0.0947
   3675 WAT         3.1590   18.5940   29.5910 O      3675 WAT       0.0827
   3676 WAT         3.1590   18.8440   15.5910 O      3676 WAT       0.0518
   3677 WAT         3.1590   18.8440   15.8410 O      3677 WAT       0.0621
   3678 WAT         3.1590   18.8440   16.0910 O      3678 WAT       0.0693
   3679 WAT         3.1590   18.8440   16.3410 O      3679 WAT       0.0717
   3680 WAT         3.1590   18.8440   16.5910 O      3680 WAT       0.0690
   3681 WAT         3.1590   18.8440   16.8410 O      3681 WAT       0.0626
   3682 WAT         3.1590   18.8440   17.0910 O      3682 WAT       0.0543
   3683 WAT         3.1590   18.8440   17.3410 O      3683 WAT       0.0457
   3684 WAT         3.1590   18.8440   29.0910 O      3684 WAT       0.0793
   3685 WAT         3.1590   18.8440   29.3410 O      3685 WAT       0.1102
   3686 WAT         3.1590   18.8440   29.5910 O      3686 WAT       0.0984
   3687 WAT         3.1590   19.0940   15.3410 O      3687 WAT       0.0499
   3688 WAT         3.1590   19.0940   15.5910 O      3688 WAT       0.0617
   3689 WAT         3.1590   19.0940   15.8410 O      3689 WAT       0.0733
   3690 WAT         3.1590   19.0940   16.0910 O      3690 WAT       0.0819
   3691 WAT         3.1590   19.0940   16.3410 O      3691 WAT       0.0846
   3692 WAT         3.1590   19.0940   16.5910 O      3692 WAT       0.0810
   3693 WAT         3.1590   19.0940   16.8410 O      3693 WAT       0.0734
   3694 WAT         3.1590   19.0940   17.0910 O      3694 WAT       0.0640
   3695 WAT         3.1590   19.0940   17.3410 O      3695 WAT       0.0543
   3696 WAT         3.1590   19.0940   17.5910 O      3696 WAT       0.0458
   3697 WAT         3.1590   19.0940   29.0910 O      3697 WAT       0.0590
   3698 WAT         3.1590   19.0940   29.3410 O      3698 WAT       0.0847
   3699 WAT         3.1590   19.0940   29.5910 O      3699 WAT       0.0771
   3700 WAT         3.1590   19.3440   15.0910 O      3700 WAT       0.0460
   3701 WAT         3.1590   19.3440   15.3410 O      3701 WAT       0.0556
   3702 WAT         3.1590   19.3440   15.5910 O      3702 WAT       0.0654
   3703 WAT         3.1590   19.3440   15.8410 O      3703 WAT       0.0753
   3704 WAT         3.1590   19.3440   16.0910 O      3704 WAT       0.0829
   3705 WAT         3.1590   19.3440   16.3410 O      3705 WAT       0.0848
   3706 WAT         3.1590   19.3440   16.5910 O      3706 WAT       0.0808
   3707 WAT         3.1590   19.3440   16.8410 O      3707 WAT       0.0734
   3708 WAT         3.1590   19.3440   17.0910 O      3708 WAT       0.0648
   3709 WAT         3.1590   19.3440   17.3410 O      3709 WAT       0.0563
   3710 WAT         3.1590   19.3440   17.5910 O      3710 WAT       0.0487
   3711 WAT         3.1590   19.3440   20.3410 O      3711 WAT       0.0489
   3712 WAT         3.1590   19.3440   20.5910 O      3712 WAT       0.0511
   3713 WAT         3.1590   19.3440   20.8410 O      3713 WAT       0.0460
   3714 WAT         3.1590   19.5940   15.0910 O      3714 WAT       0.0469
   3715 WAT         3.1590   19.5940   15.3410 O      3715 WAT       0.0524
   3716 WAT         3.1590   19.5940   15.5910 O      3716 WAT       0.0574
   3717 WAT         3.1590   19.5940   15.8410 O      3717 WAT       0.0629
   3718 WAT         3.1590   19.5940   16.0910 O      3718 WAT       0.0672
   3719 WAT         3.1590   19.5940   16.3410 O      3719 WAT       0.0679
   3720 WAT         3.1590   19.5940   16.5910 O      3720 WAT       0.0645
   3721 WAT         3.1590   19.5940   16.8410 O      3721 WAT       0.0591
   3722 WAT         3.1590   19.5940   17.0910 O      3722 WAT       0.0535
   3723 WAT         3.1590   19.5940   17.3410 O      3723 WAT       0.0484
   3724 WAT         3.1590   19.5940   20.0910 O      3724 WAT       0.0463
   3725 WAT         3.1590   19.5940   20.3410 O      3725 WAT       0.0563
   3726 WAT         3.1590   19.5940   20.5910 O      3726 WAT       0.0620
   3727 WAT         3.1590   19.5940   20.8410 O      3727 WAT       0.0592
   3728 WAT         3.1590   19.5940   21.0910 O      3728 WAT       0.0484
   3729 WAT         3.1590   19.8440   20.3410 O      3729 WAT       0.0486
   3730 WAT         3.1590   19.8440   20.5910 O      3730 WAT       0.0555
   3731 WAT         3.1590   19.8440   20.8410 O      3731 WAT       0.0556
   3732 WAT         3.1590   19.8440   21.0910 O      3732 WAT       0.0486
   3733 WAT         3.1590   20.8440   12.3410 O      3733 WAT       0.0512
   3734 WAT         3.1590   20.8440   12.5910 O      3734 WAT       0.0579
   3735 WAT         3.1590   20.8440   12.8410 O      3735 WAT       0.0602
   3736 WAT         3.1590   20.8440   13.0910 O      3736 WAT       0.0586
   3737 WAT         3.1590   20.8440   13.3410 O      3737 WAT       0.0532
   3738 WAT         3.1590   21.0940   12.0910 O      3738 WAT       0.0452
   3739 WAT         3.1590   21.0940   12.3410 O      3739 WAT       0.0580
   3740 WAT         3.1590   21.0940   12.5910 O      3740 WAT       0.0674
   3741 WAT         3.1590   21.0940   12.8410 O      3741 WAT       0.0707
   3742 WAT         3.1590   21.0940   13.0910 O      3742 WAT       0.0676
   3743 WAT         3.1590   21.0940   13.3410 O      3743 WAT       0.0582
   3744 WAT         3.1590   21.0940   23.5910 O      3744 WAT       0.0454
   3745 WAT         3.1590   21.3440   10.3410 O      3745 WAT       0.0455
   3746 WAT         3.1590   21.3440   12.3410 O      3746 WAT       0.0544
   3747 WAT         3.1590   21.3440   12.5910 O      3747 WAT       0.0648
   3748 WAT         3.1590   21.3440   12.8410 O      3748 WAT       0.0687
   3749 WAT         3.1590   21.3440   13.0910 O      3749 WAT       0.0649
   3750 WAT         3.1590   21.3440   13.3410 O      3750 WAT       0.0538
   3751 WAT         3.1590   21.3440   23.5910 O      3751 WAT       0.0463
   3752 WAT         3.1590   21.3440   23.8410 O      3752 WAT       0.0480
   3753 WAT         3.1590   21.5940   12.5910 O      3753 WAT       0.0515
   3754 WAT         3.1590   21.5940   12.8410 O      3754 WAT       0.0556
   3755 WAT         3.1590   21.5940   13.0910 O      3755 WAT       0.0524
   3756 WAT         3.1590   21.5940   23.5910 O      3756 WAT       0.0450
   3757 WAT         3.1590   21.5940   23.8410 O      3757 WAT       0.0491
   3758 WAT         3.1590   22.0940    7.8410 O      3758 WAT       0.0480
   3759 WAT         3.1590   22.0940    8.0910 O      3759 WAT       0.0550
   3760 WAT         3.1590   22.0940    8.3410 O      3760 WAT       0.0555
   3761 WAT         3.1590   22.0940    8.5910 O      3761 WAT       0.0493
   3762 WAT         3.1590   22.3440    7.5910 O      3762 WAT       0.0663
   3763 WAT         3.1590   22.3440    7.8410 O      3763 WAT       0.0900
   3764 WAT         3.1590   22.3440    8.0910 O      3764 WAT       0.1094
   3765 WAT         3.1590   22.3440    8.3410 O      3765 WAT       0.1168
   3766 WAT         3.1590   22.3440    8.5910 O      3766 WAT       0.1072
   3767 WAT         3.1590   22.3440    8.8410 O      3767 WAT       0.0828
   3768 WAT         3.1590   22.3440    9.0910 O      3768 WAT       0.0539
   3769 WAT         3.1590   22.5940    7.3410 O      3769 WAT       0.0535
   3770 WAT         3.1590   22.5940    7.5910 O      3770 WAT       0.0811
   3771 WAT         3.1590   22.5940    7.8410 O      3771 WAT       0.1158
   3772 WAT         3.1590   22.5940    8.0910 O      3772 WAT       0.1502
   3773 WAT         3.1590   22.5940    8.3410 O      3773 WAT       0.1709
   3774 WAT         3.1590   22.5940    8.5910 O      3774 WAT       0.1648
   3775 WAT         3.1590   22.5940    8.8410 O      3775 WAT       0.1305
   3776 WAT         3.1590   22.5940    9.0910 O      3776 WAT       0.0831
   3777 WAT         3.1590   22.8440    7.5910 O      3777 WAT       0.0669
   3778 WAT         3.1590   22.8440    7.8410 O      3778 WAT       0.1009
   3779 WAT         3.1590   22.8440    8.0910 O      3779 WAT       0.1401
   3780 WAT         3.1590   22.8440    8.3410 O      3780 WAT       0.1702
   3781 WAT         3.1590   22.8440    8.5910 O      3781 WAT       0.1731
   3782 WAT         3.1590   22.8440    8.8410 O      3782 WAT       0.1416
   3783 WAT         3.1590   22.8440    9.0910 O      3783 WAT       0.0904
   3784 WAT         3.1590   23.0940    7.8410 O      3784 WAT       0.0594
   3785 WAT         3.1590   23.0940    8.0910 O      3785 WAT       0.0885
   3786 WAT         3.1590   23.0940    8.3410 O      3786 WAT       0.1150
   3787 WAT         3.1590   23.0940    8.5910 O      3787 WAT       0.1233
   3788 WAT         3.1590   23.0940    8.8410 O      3788 WAT       0.1042
   3789 WAT         3.1590   23.0940    9.0910 O      3789 WAT       0.0671
   3790 WAT         3.1590   23.3440    5.3410 O      3790 WAT       0.0477
   3791 WAT         3.1590   23.3440    5.5910 O      3791 WAT       0.0487
   3792 WAT         3.1590   23.3440    8.3410 O      3792 WAT       0.0525
   3793 WAT         3.1590   23.3440    8.5910 O      3793 WAT       0.0594
   3794 WAT         3.1590   23.3440    8.8410 O      3794 WAT       0.0519
   3795 WAT         3.1590   23.5940    5.0910 O      3795 WAT       0.0568
   3796 WAT         3.1590   23.5940    5.3410 O      3796 WAT       0.0672
   3797 WAT         3.1590   23.5940    5.5910 O      3797 WAT       0.0599
   3798 WAT         3.1590   23.8440    4.8410 O      3798 WAT       0.0545
   3799 WAT         3.1590   23.8440    5.0910 O      3799 WAT       0.0757
   3800 WAT         3.1590   23.8440    5.3410 O      3800 WAT       0.0788
   3801 WAT         3.1590   23.8440    5.5910 O      3801 WAT       0.0612
   3802 WAT         3.1590   24.0940    4.8410 O      3802 WAT       0.0679
   3803 WAT         3.1590   24.0940    5.0910 O      3803 WAT       0.0847
   3804 WAT         3.1590   24.0940    5.3410 O      3804 WAT       0.0777
   3805 WAT         3.1590   24.0940    5.5910 O      3805 WAT       0.0524
   3806 WAT         3.1590   24.3440    4.5910 O      3806 WAT       0.0475
   3807 WAT         3.1590   24.3440    4.8410 O      3807 WAT       0.0714
   3808 WAT         3.1590   24.3440    5.0910 O      3808 WAT       0.0799
   3809 WAT         3.1590   24.3440    5.3410 O      3809 WAT       0.0648
   3810 WAT         3.1590   24.5940    4.5910 O      3810 WAT       0.0472
   3811 WAT         3.1590   24.5940    4.8410 O      3811 WAT       0.0640
   3812 WAT         3.1590   24.5940    5.0910 O      3812 WAT       0.0642
   3813 WAT         3.1590   24.5940    5.3410 O      3813 WAT       0.0461
   3814 WAT         3.1590   24.8440    4.8410 O      3814 WAT       0.0499
   3815 WAT         3.1590   29.3440    4.3410 O      3815 WAT       0.0451
   3816 WAT         3.1590   29.3440    4.5910 O      3816 WAT       0.0516
   3817 WAT         3.1590   29.3440    4.8410 O      3817 WAT       0.0517
   3818 WAT         3.1590   29.3440    5.0910 O      3818 WAT       0.0457
   3819 WAT         3.1590   29.5940    4.0910 O      3819 WAT       0.0614
   3820 WAT         3.1590   29.5940    4.3410 O      3820 WAT       0.0823
   3821 WAT         3.1590   29.5940    4.5910 O      3821 WAT       0.0957
   3822 WAT         3.1590   29.5940    4.8410 O      3822 WAT       0.0957
   3823 WAT         3.1590   29.5940    5.0910 O      3823 WAT       0.0838
   3824 WAT         3.1590   29.5940    5.3410 O      3824 WAT       0.0656
   3825 WAT         3.1590   29.5940    5.5910 O      3825 WAT       0.0467
   3826 WAT         3.1590   29.8440    3.8410 O      3826 WAT       0.0579
   3827 WAT         3.1590   29.8440    4.0910 O      3827 WAT       0.0857
   3828 WAT         3.1590   29.8440    4.3410 O      3828 WAT       0.1137
   3829 WAT         3.1590   29.8440    4.5910 O      3829 WAT       0.1293
   3830 WAT         3.1590   29.8440    4.8410 O      3830 WAT       0.1261
   3831 WAT         3.1590   29.8440    5.0910 O      3831 WAT       0.1074
   3832 WAT         3.1590   29.8440    5.3410 O      3832 WAT       0.0814
   3833 WAT         3.1590   29.8440    5.5910 O      3833 WAT       0.0561
   3834 WAT         3.1590   30.0940    3.8410 O      3834 WAT       0.0647
   3835 WAT         3.1590   30.0940    4.0910 O      3835 WAT       0.0912
   3836 WAT         3.1590   30.0940    4.3410 O      3836 WAT       0.1152
   3837 WAT         3.1590   30.0940    4.5910 O      3837 WAT       0.1253
   3838 WAT         3.1590   30.0940    4.8410 O      3838 WAT       0.1170
   3839 WAT         3.1590   30.0940    5.0910 O      3839 WAT       0.0951
   3840 WAT         3.1590   30.0940    5.3410 O      3840 WAT       0.0687
   3841 WAT         3.1590   30.0940    5.5910 O      3841 WAT       0.0451
   3842 WAT         3.1590   30.3440    3.8410 O      3842 WAT       0.0561
   3843 WAT         3.1590   30.3440    4.0910 O      3843 WAT       0.0721
   3844 WAT         3.1590   30.3440    4.3410 O      3844 WAT       0.0844
   3845 WAT         3.1590   30.3440    4.5910 O      3845 WAT       0.0861
   3846 WAT         3.1590   30.3440    4.8410 O      3846 WAT       0.0756
   3847 WAT         3.1590   30.3440    5.0910 O      3847 WAT       0.0578
   3848 WAT         3.4090    8.3440   26.3410 O      3848 WAT       0.0485
   3849 WAT         3.4090    8.3440   26.5910 O      3849 WAT       0.0623
   3850 WAT         3.4090    8.3440   26.8410 O      3850 WAT       0.0679
   3851 WAT         3.4090    8.3440   27.0910 O      3851 WAT       0.0629
   3852 WAT         3.4090    8.3440   27.3410 O      3852 WAT       0.0511
   3853 WAT         3.4090    8.3440   28.0910 O      3853 WAT       0.0551
   3854 WAT         3.4090    8.3440   28.3410 O      3854 WAT       0.0728
   3855 WAT         3.4090    8.3440   28.5910 O      3855 WAT       0.0815
   3856 WAT         3.4090    8.3440   28.8410 O      3856 WAT       0.0748
   3857 WAT         3.4090    8.3440   29.0910 O      3857 WAT       0.0576
   3858 WAT         3.4090    8.5940   26.5910 O      3858 WAT       0.0529
   3859 WAT         3.4090    8.5940   26.8410 O      3859 WAT       0.0578
   3860 WAT         3.4090    8.5940   27.0910 O      3860 WAT       0.0539
   3861 WAT         3.4090    8.5940   28.0910 O      3861 WAT       0.0554
   3862 WAT         3.4090    8.5940   28.3410 O      3862 WAT       0.0720
   3863 WAT         3.4090    8.5940   28.5910 O      3863 WAT       0.0772
   3864 WAT         3.4090    8.5940   28.8410 O      3864 WAT       0.0671
   3865 WAT         3.4090    8.5940   29.0910 O      3865 WAT       0.0486
   3866 WAT         3.4090    8.8440   28.0910 O      3866 WAT       0.0458
   3867 WAT         3.4090    8.8440   28.3410 O      3867 WAT       0.0602
   3868 WAT         3.4090    8.8440   28.5910 O      3868 WAT       0.0632
   3869 WAT         3.4090    8.8440   28.8410 O      3869 WAT       0.0530
   3870 WAT         3.4090    9.0940   28.3410 O      3870 WAT       0.0475
   3871 WAT         3.4090    9.0940   28.5910 O      3871 WAT       0.0502
   3872 WAT         3.4090    9.5940   28.3410 O      3872 WAT       0.0455
   3873 WAT         3.4090    9.5940   28.5910 O      3873 WAT       0.0499
   3874 WAT         3.4090    9.8440   28.3410 O      3874 WAT       0.0648
   3875 WAT         3.4090    9.8440   28.5910 O      3875 WAT       0.0716
   3876 WAT         3.4090    9.8440   28.8410 O      3876 WAT       0.0609
   3877 WAT         3.4090   10.0940   28.0910 O      3877 WAT       0.0691
   3878 WAT         3.4090   10.0940   28.3410 O      3878 WAT       0.1001
   3879 WAT         3.4090   10.0940   28.5910 O      3879 WAT       0.1106
   3880 WAT         3.4090   10.0940   28.8410 O      3880 WAT       0.0947
   3881 WAT         3.4090   10.0940   29.0910 O      3881 WAT       0.0644
   3882 WAT         3.4090   10.3440   27.8410 O      3882 WAT       0.0533
   3883 WAT         3.4090   10.3440   28.0910 O      3883 WAT       0.0994
   3884 WAT         3.4090   10.3440   28.3410 O      3884 WAT       0.1419
   3885 WAT         3.4090   10.3440   28.5910 O      3885 WAT       0.1564
   3886 WAT         3.4090   10.3440   28.8410 O      3886 WAT       0.1355
   3887 WAT         3.4090   10.3440   29.0910 O      3887 WAT       0.0945
   3888 WAT         3.4090   10.3440   29.3410 O      3888 WAT       0.0537
   3889 WAT         3.4090   10.5940   27.8410 O      3889 WAT       0.0663
   3890 WAT         3.4090   10.5940   28.0910 O      3890 WAT       0.1202
   3891 WAT         3.4090   10.5940   28.3410 O      3891 WAT       0.1691
   3892 WAT         3.4090   10.5940   28.5910 O      3892 WAT       0.1861
   3893 WAT         3.4090   10.5940   28.8410 O      3893 WAT       0.1641
   3894 WAT         3.4090   10.5940   29.0910 O      3894 WAT       0.1187
   3895 WAT         3.4090   10.5940   29.3410 O      3895 WAT       0.0709
   3896 WAT         3.4090   10.8440   27.8410 O      3896 WAT       0.0670
   3897 WAT         3.4090   10.8440   28.0910 O      3897 WAT       0.1179
   3898 WAT         3.4090   10.8440   28.3410 O      3898 WAT       0.1633
   3899 WAT         3.4090   10.8440   28.5910 O      3899 WAT       0.1799
   3900 WAT         3.4090   10.8440   28.8410 O      3900 WAT       0.1619
   3901 WAT         3.4090   10.8440   29.0910 O      3901 WAT       0.1218
   3902 WAT         3.4090   10.8440   29.3410 O      3902 WAT       0.0767
   3903 WAT         3.4090   11.0940   27.8410 O      3903 WAT       0.0556
   3904 WAT         3.4090   11.0940   28.0910 O      3904 WAT       0.0932
   3905 WAT         3.4090   11.0940   28.3410 O      3905 WAT       0.1261
   3906 WAT         3.4090   11.0940   28.5910 O      3906 WAT       0.1387
   3907 WAT         3.4090   11.0940   28.8410 O      3907 WAT       0.1271
   3908 WAT         3.4090   11.0940   29.0910 O      3908 WAT       0.0992
   3909 WAT         3.4090   11.0940   29.3410 O      3909 WAT       0.0657
   3910 WAT         3.4090   11.3440   28.0910 O      3910 WAT       0.0616
   3911 WAT         3.4090   11.3440   28.3410 O      3911 WAT       0.0794
   3912 WAT         3.4090   11.3440   28.5910 O      3912 WAT       0.0857
   3913 WAT         3.4090   11.3440   28.8410 O      3913 WAT       0.0791
   3914 WAT         3.4090   11.3440   29.0910 O      3914 WAT       0.0636
   3915 WAT         3.4090   12.8440   26.8410 O      3915 WAT       0.0456
   3916 WAT         3.4090   12.8440   27.0910 O      3916 WAT       0.0524
   3917 WAT         3.4090   12.8440   27.3410 O      3917 WAT       0.0550
   3918 WAT         3.4090   12.8440   27.5910 O      3918 WAT       0.0520
   3919 WAT         3.4090   13.0940   26.8410 O      3919 WAT       0.0465
   3920 WAT         3.4090   13.0940   27.0910 O      3920 WAT       0.0570
   3921 WAT         3.4090   13.0940   27.3410 O      3921 WAT       0.0633
   3922 WAT         3.4090   13.0940   27.5910 O      3922 WAT       0.0620
   3923 WAT         3.4090   13.0940   27.8410 O      3923 WAT       0.0531
   3924 WAT         3.4090   13.3440   27.0910 O      3924 WAT       0.0520
   3925 WAT         3.4090   13.3440   27.3410 O      3925 WAT       0.0621
   3926 WAT         3.4090   13.3440   27.5910 O      3926 WAT       0.0651
   3927 WAT         3.4090   13.3440   27.8410 O      3927 WAT       0.0593
   3928 WAT         3.4090   13.3440   28.0910 O      3928 WAT       0.0477
   3929 WAT         3.4090   13.5940   27.3410 O      3929 WAT       0.0518
   3930 WAT         3.4090   13.5940   27.5910 O      3930 WAT       0.0603
   3931 WAT         3.4090   13.5940   27.8410 O      3931 WAT       0.0613
   3932 WAT         3.4090   13.5940   28.0910 O      3932 WAT       0.0549
   3933 WAT         3.4090   13.8440   27.5910 O      3933 WAT       0.0525
   3934 WAT         3.4090   13.8440   27.8410 O      3934 WAT       0.0624
   3935 WAT         3.4090   13.8440   28.0910 O      3935 WAT       0.0650
   3936 WAT         3.4090   13.8440   28.3410 O      3936 WAT       0.0591
   3937 WAT         3.4090   13.8440   28.5910 O      3937 WAT       0.0480
   3938 WAT         3.4090   14.0940   27.5910 O      3938 WAT       0.0473
   3939 WAT         3.4090   14.0940   27.8410 O      3939 WAT       0.0660
   3940 WAT         3.4090   14.0940   28.0910 O      3940 WAT       0.0793
   3941 WAT         3.4090   14.0940   28.3410 O      3941 WAT       0.0807
   3942 WAT         3.4090   14.0940   28.5910 O      3942 WAT       0.0706
   3943 WAT         3.4090   14.0940   28.8410 O      3943 WAT       0.0556
   3944 WAT         3.4090   14.3440   27.5910 O      3944 WAT       0.0451
   3945 WAT         3.4090   14.3440   27.8410 O      3945 WAT       0.0697
   3946 WAT         3.4090   14.3440   28.0910 O      3946 WAT       0.0912
   3947 WAT         3.4090   14.3440   28.3410 O      3947 WAT       0.0990
   3948 WAT         3.4090   14.3440   28.5910 O      3948 WAT       0.0903
   3949 WAT         3.4090   14.3440   28.8410 O      3949 WAT       0.0722
   3950 WAT         3.4090   14.3440   29.0910 O      3950 WAT       0.0533
   3951 WAT         3.4090   14.5940   27.8410 O      3951 WAT       0.0679
   3952 WAT         3.4090   14.5940   28.0910 O      3952 WAT       0.0902
   3953 WAT         3.4090   14.5940   28.3410 O      3953 WAT       0.0997
   3954 WAT         3.4090   14.5940   28.5910 O      3954 WAT       0.0922
   3955 WAT         3.4090   14.5940   28.8410 O      3955 WAT       0.0741
   3956 WAT         3.4090   14.5940   29.0910 O      3956 WAT       0.0542
   3957 WAT         3.4090   14.8440   27.8410 O      3957 WAT       0.0591
   3958 WAT         3.4090   14.8440   28.0910 O      3958 WAT       0.0747
   3959 WAT         3.4090   14.8440   28.3410 O      3959 WAT       0.0802
   3960 WAT         3.4090   14.8440   28.5910 O      3960 WAT       0.0731
   3961 WAT         3.4090   14.8440   28.8410 O      3961 WAT       0.0582
   3962 WAT         3.4090   15.0940   27.8410 O      3962 WAT       0.0463
   3963 WAT         3.4090   15.0940   28.0910 O      3963 WAT       0.0523
   3964 WAT         3.4090   15.0940   28.3410 O      3964 WAT       0.0520
   3965 WAT         3.4090   15.0940   28.5910 O      3965 WAT       0.0451
   3966 WAT         3.4090   16.0940   24.0910 O      3966 WAT       0.0542
   3967 WAT         3.4090   16.0940   24.3410 O      3967 WAT       0.0597
   3968 WAT         3.4090   16.0940   24.5910 O      3968 WAT       0.0554
   3969 WAT         3.4090   16.3440   23.8410 O      3969 WAT       0.0480
   3970 WAT         3.4090   16.3440   24.0910 O      3970 WAT       0.0659
   3971 WAT         3.4090   16.3440   24.3410 O      3971 WAT       0.0785
   3972 WAT         3.4090   16.3440   24.5910 O      3972 WAT       0.0782
   3973 WAT         3.4090   16.3440   24.8410 O      3973 WAT       0.0647
   3974 WAT         3.4090   16.3440   25.0910 O      3974 WAT       0.0454
   3975 WAT         3.4090   16.5940   23.8410 O      3975 WAT       0.0510
   3976 WAT         3.4090   16.5940   24.0910 O      3976 WAT       0.0749
   3977 WAT         3.4090   16.5940   24.3410 O      3977 WAT       0.0954
   3978 WAT         3.4090   16.5940   24.5910 O      3978 WAT       0.1011
   3979 WAT         3.4090   16.5940   24.8410 O      3979 WAT       0.0878
   3980 WAT         3.4090   16.5940   25.0910 O      3980 WAT       0.0630
   3981 WAT         3.4090   16.8440   23.8410 O      3981 WAT       0.0508
   3982 WAT         3.4090   16.8440   24.0910 O      3982 WAT       0.0780
   3983 WAT         3.4090   16.8440   24.3410 O      3983 WAT       0.1043
   3984 WAT         3.4090   16.8440   24.5910 O      3984 WAT       0.1160
   3985 WAT         3.4090   16.8440   24.8410 O      3985 WAT       0.1050
   3986 WAT         3.4090   16.8440   25.0910 O      3986 WAT       0.0769
   3987 WAT         3.4090   16.8440   25.3410 O      3987 WAT       0.0464
   3988 WAT         3.4090   17.0940   15.5910 O      3988 WAT       0.0451
   3989 WAT         3.4090   17.0940   15.8410 O      3989 WAT       0.0451
   3990 WAT         3.4090   17.0940   20.8410 O      3990 WAT       0.0466
   3991 WAT         3.4090   17.0940   23.8410 O      3991 WAT       0.0480
   3992 WAT         3.4090   17.0940   24.0910 O      3992 WAT       0.0747
   3993 WAT         3.4090   17.0940   24.3410 O      3993 WAT       0.1022
   3994 WAT         3.4090   17.0940   24.5910 O      3994 WAT       0.1167
   3995 WAT         3.4090   17.0940   24.8410 O      3995 WAT       0.1081
   3996 WAT         3.4090   17.0940   25.0910 O      3996 WAT       0.0802
   3997 WAT         3.4090   17.0940   25.3410 O      3997 WAT       0.0480
   3998 WAT         3.4090   17.3440   20.5910 O      3998 WAT       0.0516
   3999 WAT         3.4090   17.3440   20.8410 O      3999 WAT       0.0567
   4000 WAT         3.4090   17.3440   21.0910 O      4000 WAT       0.0556
   4001 WAT         3.4090   17.3440   21.3410 O      4001 WAT       0.0483
   4002 WAT         3.4090   17.3440   24.0910 O      4002 WAT       0.0668
   4003 WAT         3.4090   17.3440   24.3410 O      4003 WAT       0.0908
   4004 WAT         3.4090   17.3440   24.5910 O      4004 WAT       0.1034
   4005 WAT         3.4090   17.3440   24.8410 O      4005 WAT       0.0956
   4006 WAT         3.4090   17.3440   25.0910 O      4006 WAT       0.0704
   4007 WAT         3.4090   17.5940   20.5910 O      4007 WAT       0.0538
   4008 WAT         3.4090   17.5940   20.8410 O      4008 WAT       0.0605
   4009 WAT         3.4090   17.5940   21.0910 O      4009 WAT       0.0607
   4010 WAT         3.4090   17.5940   21.3410 O      4010 WAT       0.0540
   4011 WAT         3.4090   17.5940   24.0910 O      4011 WAT       0.0565
   4012 WAT         3.4090   17.5940   24.3410 O      4012 WAT       0.0740
   4013 WAT         3.4090   17.5940   24.5910 O      4013 WAT       0.0817
   4014 WAT         3.4090   17.5940   24.8410 O      4014 WAT       0.0733
   4015 WAT         3.4090   17.5940   25.0910 O      4015 WAT       0.0526
   4016 WAT         3.4090   17.8440   20.5910 O      4016 WAT       0.0493
   4017 WAT         3.4090   17.8440   20.8410 O      4017 WAT       0.0560
   4018 WAT         3.4090   17.8440   21.0910 O      4018 WAT       0.0570
   4019 WAT         3.4090   17.8440   21.3410 O      4019 WAT       0.0520
   4020 WAT         3.4090   17.8440   24.0910 O      4020 WAT       0.0454
   4021 WAT         3.4090   17.8440   24.3410 O      4021 WAT       0.0561
   4022 WAT         3.4090   17.8440   24.5910 O      4022 WAT       0.0586
   4023 WAT         3.4090   17.8440   24.8410 O      4023 WAT       0.0499
   4024 WAT         3.4090   18.0940   20.8410 O      4024 WAT       0.0459
   4025 WAT         3.4090   18.0940   21.0910 O      4025 WAT       0.0464
   4026 WAT         3.4090   18.5940   16.3410 O      4026 WAT       0.0478
   4027 WAT         3.4090   18.5940   16.5910 O      4027 WAT       0.0495
   4028 WAT         3.4090   18.5940   16.8410 O      4028 WAT       0.0488
   4029 WAT         3.4090   18.5940   17.0910 O      4029 WAT       0.0465
   4030 WAT         3.4090   18.8440   16.0910 O      4030 WAT       0.0526
   4031 WAT         3.4090   18.8440   16.3410 O      4031 WAT       0.0591
   4032 WAT         3.4090   18.8440   16.5910 O      4032 WAT       0.0621
   4033 WAT         3.4090   18.8440   16.8410 O      4033 WAT       0.0616
   4034 WAT         3.4090   18.8440   17.0910 O      4034 WAT       0.0585
   4035 WAT         3.4090   18.8440   17.3410 O      4035 WAT       0.0535
   4036 WAT         3.4090   18.8440   17.5910 O      4036 WAT       0.0478
   4037 WAT         3.4090   19.0940   15.8410 O      4037 WAT       0.0503
   4038 WAT         3.4090   19.0940   16.0910 O      4038 WAT       0.0610
   4039 WAT         3.4090   19.0940   16.3410 O      4039 WAT       0.0684
   4040 WAT         3.4090   19.0940   16.5910 O      4040 WAT       0.0717
   4041 WAT         3.4090   19.0940   16.8410 O      4041 WAT       0.0713
   4042 WAT         3.4090   19.0940   17.0910 O      4042 WAT       0.0677
   4043 WAT         3.4090   19.0940   17.3410 O      4043 WAT       0.0616
   4044 WAT         3.4090   19.0940   17.5910 O      4044 WAT       0.0542
   4045 WAT         3.4090   19.0940   17.8410 O      4045 WAT       0.0471
   4046 WAT         3.4090   19.3440   15.8410 O      4046 WAT       0.0510
   4047 WAT         3.4090   19.3440   16.0910 O      4047 WAT       0.0608
   4048 WAT         3.4090   19.3440   16.3410 O      4048 WAT       0.0674
   4049 WAT         3.4090   19.3440   16.5910 O      4049 WAT       0.0702
   4050 WAT         3.4090   19.3440   16.8410 O      4050 WAT       0.0698
   4051 WAT         3.4090   19.3440   17.0910 O      4051 WAT       0.0665
   4052 WAT         3.4090   19.3440   17.3410 O      4052 WAT       0.0603
   4053 WAT         3.4090   19.3440   17.5910 O      4053 WAT       0.0524
   4054 WAT         3.4090   19.5940   16.0910 O      4054 WAT       0.0483
   4055 WAT         3.4090   19.5940   16.3410 O      4055 WAT       0.0527
   4056 WAT         3.4090   19.5940   16.5910 O      4056 WAT       0.0546
   4057 WAT         3.4090   19.5940   16.8410 O      4057 WAT       0.0544
   4058 WAT         3.4090   19.5940   17.0910 O      4058 WAT       0.0521
   4059 WAT         3.4090   19.5940   17.3410 O      4059 WAT       0.0476
   4060 WAT         3.4090   20.8440   12.0910 O      4060 WAT       0.0561
   4061 WAT         3.4090   20.8440   12.3410 O      4061 WAT       0.0605
   4062 WAT         3.4090   20.8440   12.5910 O      4062 WAT       0.0568
   4063 WAT         3.4090   20.8440   12.8410 O      4063 WAT       0.0485
   4064 WAT         3.4090   21.0940   11.8410 O      4064 WAT       0.0492
   4065 WAT         3.4090   21.0940   12.0910 O      4065 WAT       0.0632
   4066 WAT         3.4090   21.0940   12.3410 O      4066 WAT       0.0700
   4067 WAT         3.4090   21.0940   12.5910 O      4067 WAT       0.0675
   4068 WAT         3.4090   21.0940   12.8410 O      4068 WAT       0.0586
   4069 WAT         3.4090   21.0940   13.0910 O      4069 WAT       0.0473
   4070 WAT         3.4090   21.3440   12.0910 O      4070 WAT       0.0550
   4071 WAT         3.4090   21.3440   12.3410 O      4071 WAT       0.0629
   4072 WAT         3.4090   21.3440   12.5910 O      4072 WAT       0.0626
   4073 WAT         3.4090   21.3440   12.8410 O      4073 WAT       0.0558
   4074 WAT         3.4090   21.3440   13.0910 O      4074 WAT       0.0451
   4075 WAT         3.4090   21.5940   12.5910 O      4075 WAT       0.0452
   4076 WAT         3.4090   22.0940    7.8410 O      4076 WAT       0.0552
   4077 WAT         3.4090   22.0940    8.0910 O      4077 WAT       0.0637
   4078 WAT         3.4090   22.0940    8.3410 O      4078 WAT       0.0650
   4079 WAT         3.4090   22.0940    8.5910 O      4079 WAT       0.0590
   4080 WAT         3.4090   22.0940    8.8410 O      4080 WAT       0.0473
   4081 WAT         3.4090   22.3440    7.3410 O      4081 WAT       0.0450
   4082 WAT         3.4090   22.3440    7.5910 O      4082 WAT       0.0681
   4083 WAT         3.4090   22.3440    7.8410 O      4083 WAT       0.0940
   4084 WAT         3.4090   22.3440    8.0910 O      4084 WAT       0.1158
   4085 WAT         3.4090   22.3440    8.3410 O      4085 WAT       0.1261
   4086 WAT         3.4090   22.3440    8.5910 O      4086 WAT       0.1196
   4087 WAT         3.4090   22.3440    8.8410 O      4087 WAT       0.0965
   4088 WAT         3.4090   22.3440    9.0910 O      4088 WAT       0.0652
   4089 WAT         3.4090   22.5940    7.3410 O      4089 WAT       0.0476
   4090 WAT         3.4090   22.5940    7.5910 O      4090 WAT       0.0741
   4091 WAT         3.4090   22.5940    7.8410 O      4091 WAT       0.1081
   4092 WAT         3.4090   22.5940    8.0910 O      4092 WAT       0.1430
   4093 WAT         3.4090   22.5940    8.3410 O      4093 WAT       0.1673
   4094 WAT         3.4090   22.5940    8.5910 O      4094 WAT       0.1678
   4095 WAT         3.4090   22.5940    8.8410 O      4095 WAT       0.1394
   4096 WAT         3.4090   22.5940    9.0910 O      4096 WAT       0.0932
   4097 WAT         3.4090   22.5940    9.3410 O      4097 WAT       0.0496
   4098 WAT         3.4090   22.8440    7.5910 O      4098 WAT       0.0534
   4099 WAT         3.4090   22.8440    7.8410 O      4099 WAT       0.0828
   4100 WAT         3.4090   22.8440    8.0910 O      4100 WAT       0.1182
   4101 WAT         3.4090   22.8440    8.3410 O      4101 WAT       0.1489
   4102 WAT         3.4090   22.8440    8.5910 O      4102 WAT       0.1583
   4103 WAT         3.4090   22.8440    8.8410 O      4103 WAT       0.1362
   4104 WAT         3.4090   22.8440    9.0910 O      4104 WAT       0.0916
   4105 WAT         3.4090   22.8440    9.3410 O      4105 WAT       0.0472
   4106 WAT         3.4090   23.0940    8.0910 O      4106 WAT       0.0650
   4107 WAT         3.4090   23.0940    8.3410 O      4107 WAT       0.0883
   4108 WAT         3.4090   23.0940    8.5910 O      4108 WAT       0.0995
   4109 WAT         3.4090   23.0940    8.8410 O      4109 WAT       0.0886
   4110 WAT         3.4090   23.0940    9.0910 O      4110 WAT       0.0602
   4111 WAT         3.4090   23.3440    5.0910 O      4111 WAT       0.0458
   4112 WAT         3.4090   23.3440    5.3410 O      4112 WAT       0.0585
   4113 WAT         3.4090   23.3440    5.5910 O      4113 WAT       0.0561
   4114 WAT         3.4090   23.5940    4.8410 O      4114 WAT       0.0474
   4115 WAT         3.4090   23.5940    5.0910 O      4115 WAT       0.0712
   4116 WAT         3.4090   23.5940    5.3410 O      4116 WAT       0.0800
   4117 WAT         3.4090   23.5940    5.5910 O      4117 WAT       0.0666
   4118 WAT         3.4090   23.8440    4.8410 O      4118 WAT       0.0688
   4119 WAT         3.4090   23.8440    5.0910 O      4119 WAT       0.0921
   4120 WAT         3.4090   23.8440    5.3410 O      4120 WAT       0.0906
   4121 WAT         3.4090   23.8440    5.5910 O      4121 WAT       0.0653
   4122 WAT         3.4090   24.0940    4.5910 O      4122 WAT       0.0516
   4123 WAT         3.4090   24.0940    4.8410 O      4123 WAT       0.0836
   4124 WAT         3.4090   24.0940    5.0910 O      4124 WAT       0.0997
   4125 WAT         3.4090   24.0940    5.3410 O      4125 WAT       0.0859
   4126 WAT         3.4090   24.0940    5.5910 O      4126 WAT       0.0536
   4127 WAT         3.4090   24.3440    4.5910 O      4127 WAT       0.0586
   4128 WAT         3.4090   24.3440    4.8410 O      4128 WAT       0.0858
   4129 WAT         3.4090   24.3440    5.0910 O      4129 WAT       0.0912
   4130 WAT         3.4090   24.3440    5.3410 O      4130 WAT       0.0692
   4131 WAT         3.4090   24.5940    4.5910 O      4131 WAT       0.0568
   4132 WAT         3.4090   24.5940    4.8410 O      4132 WAT       0.0747
   4133 WAT         3.4090   24.5940    5.0910 O      4133 WAT       0.0711
   4134 WAT         3.4090   24.5940    5.3410 O      4134 WAT       0.0476
   4135 WAT         3.4090   24.8440    4.5910 O      4135 WAT       0.0476
   4136 WAT         3.4090   24.8440    4.8410 O      4136 WAT       0.0558
   4137 WAT         3.4090   24.8440    5.0910 O      4137 WAT       0.0474
   4138 WAT         3.4090   28.0940    2.5910 O      4138 WAT       0.0461
   4139 WAT         3.4090   28.0940    2.8410 O      4139 WAT       0.0504
   4140 WAT         3.4090   28.0940    3.0910 O      4140 WAT       0.0453
   4141 WAT         3.4090   28.3440    2.5910 O      4141 WAT       0.0530
   4142 WAT         3.4090   28.3440    2.8410 O      4142 WAT       0.0562
   4143 WAT         3.4090   28.3440    3.0910 O      4143 WAT       0.0492
   4144 WAT         3.4090   28.5940    2.5910 O      4144 WAT       0.0557
   4145 WAT         3.4090   28.5940    2.8410 O      4145 WAT       0.0574
   4146 WAT         3.4090   28.5940    3.0910 O      4146 WAT       0.0495
   4147 WAT         3.4090   28.8440    2.5910 O      4147 WAT       0.0542
   4148 WAT         3.4090   28.8440    2.8410 O      4148 WAT       0.0543
   4149 WAT         3.4090   28.8440    3.0910 O      4149 WAT       0.0464
   4150 WAT         3.4090   29.0940    2.5910 O      4150 WAT       0.0496
   4151 WAT         3.4090   29.0940    2.8410 O      4151 WAT       0.0488
   4152 WAT         3.4090   29.5940    4.3410 O      4152 WAT       0.0542
   4153 WAT         3.4090   29.5940    4.5910 O      4153 WAT       0.0603
   4154 WAT         3.4090   29.5940    4.8410 O      4154 WAT       0.0584
   4155 WAT         3.4090   29.5940    5.0910 O      4155 WAT       0.0496
   4156 WAT         3.4090   29.8440    3.8410 O      4156 WAT       0.0459
   4157 WAT         3.4090   29.8440    4.0910 O      4157 WAT       0.0618
   4158 WAT         3.4090   29.8440    4.3410 O      4158 WAT       0.0778
   4159 WAT         3.4090   29.8440    4.5910 O      4159 WAT       0.0859
   4160 WAT         3.4090   29.8440    4.8410 O      4160 WAT       0.0820
   4161 WAT         3.4090   29.8440    5.0910 O      4161 WAT       0.0680
   4162 WAT         3.4090   29.8440    5.3410 O      4162 WAT       0.0494
   4163 WAT         3.4090   30.0940    3.8410 O      4163 WAT       0.0514
   4164 WAT         3.4090   30.0940    4.0910 O      4164 WAT       0.0676
   4165 WAT         3.4090   30.0940    4.3410 O      4165 WAT       0.0823
   4166 WAT         3.4090   30.0940    4.5910 O      4166 WAT       0.0878
   4167 WAT         3.4090   30.0940    4.8410 O      4167 WAT       0.0807
   4168 WAT         3.4090   30.0940    5.0910 O      4168 WAT       0.0641
   4169 WAT         3.4090   30.3440    3.8410 O      4169 WAT       0.0452
   4170 WAT         3.4090   30.3440    4.0910 O      4170 WAT       0.0554
   4171 WAT         3.4090   30.3440    4.3410 O      4171 WAT       0.0633
   4172 WAT         3.4090   30.3440    4.5910 O      4172 WAT       0.0638
   4173 WAT         3.4090   30.3440    4.8410 O      4173 WAT       0.0553
   4174 WAT         3.6590    8.3440   25.8410 O      4174 WAT       0.0456
   4175 WAT         3.6590    8.3440   26.0910 O      4175 WAT       0.0680
   4176 WAT         3.6590    8.3440   26.3410 O      4176 WAT       0.0872
   4177 WAT         3.6590    8.3440   26.5910 O      4177 WAT       0.0952
   4178 WAT         3.6590    8.3440   26.8410 O      4178 WAT       0.0872
   4179 WAT         3.6590    8.3440   27.0910 O      4179 WAT       0.0675
   4180 WAT         3.6590    8.3440   27.3410 O      4180 WAT       0.0471
   4181 WAT         3.6590    8.3440   27.8410 O      4181 WAT       0.0467
   4182 WAT         3.6590    8.3440   28.0910 O      4182 WAT       0.0706
   4183 WAT         3.6590    8.3440   28.3410 O      4183 WAT       0.0924
   4184 WAT         3.6590    8.3440   28.5910 O      4184 WAT       0.0939
   4185 WAT         3.6590    8.3440   28.8410 O      4185 WAT       0.0739
   4186 WAT         3.6590    8.3440   29.0910 O      4186 WAT       0.0467
   4187 WAT         3.6590    8.5940   26.0910 O      4187 WAT       0.0603
   4188 WAT         3.6590    8.5940   26.3410 O      4188 WAT       0.0769
   4189 WAT         3.6590    8.5940   26.5910 O      4189 WAT       0.0846
   4190 WAT         3.6590    8.5940   26.8410 O      4190 WAT       0.0785
   4191 WAT         3.6590    8.5940   27.0910 O      4191 WAT       0.0617
   4192 WAT         3.6590    8.5940   27.8410 O      4192 WAT       0.0480
   4193 WAT         3.6590    8.5940   28.0910 O      4193 WAT       0.0719
   4194 WAT         3.6590    8.5940   28.3410 O      4194 WAT       0.0908
   4195 WAT         3.6590    8.5940   28.5910 O      4195 WAT       0.0877
   4196 WAT         3.6590    8.5940   28.8410 O      4196 WAT       0.0651
   4197 WAT         3.6590    8.8440   26.0910 O      4197 WAT       0.0473
   4198 WAT         3.6590    8.8440   26.3410 O      4198 WAT       0.0553
   4199 WAT         3.6590    8.8440   26.5910 O      4199 WAT       0.0577
   4200 WAT         3.6590    8.8440   26.8410 O      4200 WAT       0.0521
   4201 WAT         3.6590    8.8440   28.0910 O      4201 WAT       0.0601
   4202 WAT         3.6590    8.8440   28.3410 O      4202 WAT       0.0747
   4203 WAT         3.6590    8.8440   28.5910 O      4203 WAT       0.0700
   4204 WAT         3.6590    8.8440   28.8410 O      4204 WAT       0.0499
   4205 WAT         3.6590    9.0940   28.0910 O      4205 WAT       0.0458
   4206 WAT         3.6590    9.0940   28.3410 O      4206 WAT       0.0576
   4207 WAT         3.6590    9.0940   28.5910 O      4207 WAT       0.0539
   4208 WAT         3.6590    9.3440   28.3410 O      4208 WAT       0.0492
   4209 WAT         3.6590    9.3440   28.5910 O      4209 WAT       0.0471
   4210 WAT         3.6590    9.5940   28.3410 O      4210 WAT       0.0564
   4211 WAT         3.6590    9.5940   28.5910 O      4211 WAT       0.0553
   4212 WAT         3.6590    9.8440   28.0910 O      4212 WAT       0.0648
   4213 WAT         3.6590    9.8440   28.3410 O      4213 WAT       0.0867
   4214 WAT         3.6590    9.8440   28.5910 O      4214 WAT       0.0858
   4215 WAT         3.6590    9.8440   28.8410 O      4215 WAT       0.0643
   4216 WAT         3.6590   10.0940   27.8410 O      4216 WAT       0.0605
   4217 WAT         3.6590   10.0940   28.0910 O      4217 WAT       0.1084
   4218 WAT         3.6590   10.0940   28.3410 O      4218 WAT       0.1435
   4219 WAT         3.6590   10.0940   28.5910 O      4219 WAT       0.1420
   4220 WAT         3.6590   10.0940   28.8410 O      4220 WAT       0.1072
   4221 WAT         3.6590   10.0940   29.0910 O      4221 WAT       0.0633
   4222 WAT         3.6590   10.3440   27.8410 O      4222 WAT       0.0945
   4223 WAT         3.6590   10.3440   28.0910 O      4223 WAT       0.1646
   4224 WAT         3.6590   10.3440   28.3410 O      4224 WAT       0.2142
   4225 WAT         3.6590   10.3440   28.5910 O      4225 WAT       0.2108
   4226 WAT         3.6590   10.3440   28.8410 O      4226 WAT       0.1605
   4227 WAT         3.6590   10.3440   29.0910 O      4227 WAT       0.0972
   4228 WAT         3.6590   10.3440   29.3410 O      4228 WAT       0.0479
   4229 WAT         3.6590   10.5940   27.5910 O      4229 WAT       0.0551
   4230 WAT         3.6590   10.5940   27.8410 O      4230 WAT       0.1221
   4231 WAT         3.6590   10.5940   28.0910 O      4231 WAT       0.2067
   4232 WAT         3.6590   10.5940   28.3410 O      4232 WAT       0.2642
   4233 WAT         3.6590   10.5940   28.5910 O      4233 WAT       0.2587
   4234 WAT         3.6590   10.5940   28.8410 O      4234 WAT       0.1992
   4235 WAT         3.6590   10.5940   29.0910 O      4235 WAT       0.1245
   4236 WAT         3.6590   10.5940   29.3410 O      4236 WAT       0.0646
   4237 WAT         3.6590   10.8440   27.5910 O      4237 WAT       0.0594
   4238 WAT         3.6590   10.8440   27.8410 O      4238 WAT       0.1256
   4239 WAT         3.6590   10.8440   28.0910 O      4239 WAT       0.2060
   4240 WAT         3.6590   10.8440   28.3410 O      4240 WAT       0.2587
   4241 WAT         3.6590   10.8440   28.5910 O      4241 WAT       0.2524
   4242 WAT         3.6590   10.8440   28.8410 O      4242 WAT       0.1972
   4243 WAT         3.6590   10.8440   29.0910 O      4243 WAT       0.1276
   4244 WAT         3.6590   10.8440   29.3410 O      4244 WAT       0.0698
   4245 WAT         3.6590   11.0940   27.5910 O      4245 WAT       0.0523
   4246 WAT         3.6590   11.0940   27.8410 O      4246 WAT       0.1028
   4247 WAT         3.6590   11.0940   28.0910 O      4247 WAT       0.1611
   4248 WAT         3.6590   11.0940   28.3410 O      4248 WAT       0.1975
   4249 WAT         3.6590   11.0940   28.5910 O      4249 WAT       0.1916
   4250 WAT         3.6590   11.0940   28.8410 O      4250 WAT       0.1518
   4251 WAT         3.6590   11.0940   29.0910 O      4251 WAT       0.1017
   4252 WAT         3.6590   11.0940   29.3410 O      4252 WAT       0.0587
   4253 WAT         3.6590   11.3440   27.8410 O      4253 WAT       0.0703
   4254 WAT         3.6590   11.3440   28.0910 O      4254 WAT       0.1013
   4255 WAT         3.6590   11.3440   28.3410 O      4255 WAT       0.1184
   4256 WAT         3.6590   11.3440   28.5910 O      4256 WAT       0.1128
   4257 WAT         3.6590   11.3440   28.8410 O      4257 WAT       0.0900
   4258 WAT         3.6590   11.3440   29.0910 O      4258 WAT       0.0622
   4259 WAT         3.6590   11.5940   27.8410 O      4259 WAT       0.0456
   4260 WAT         3.6590   11.5940   28.0910 O      4260 WAT       0.0563
   4261 WAT         3.6590   11.5940   28.3410 O      4261 WAT       0.0593
   4262 WAT         3.6590   11.5940   28.5910 O      4262 WAT       0.0535
   4263 WAT         3.6590   12.5940   26.8410 O      4263 WAT       0.0458
   4264 WAT         3.6590   12.5940   27.0910 O      4264 WAT       0.0491
   4265 WAT         3.6590   12.5940   27.3410 O      4265 WAT       0.0488
   4266 WAT         3.6590   12.8440   26.8410 O      4266 WAT       0.0535
   4267 WAT         3.6590   12.8440   27.0910 O      4267 WAT       0.0604
   4268 WAT         3.6590   12.8440   27.3410 O      4268 WAT       0.0612
   4269 WAT         3.6590   12.8440   27.5910 O      4269 WAT       0.0541
   4270 WAT         3.6590   13.0940   26.8410 O      4270 WAT       0.0533
   4271 WAT         3.6590   13.0940   27.0910 O      4271 WAT       0.0643
   4272 WAT         3.6590   13.0940   27.3410 O      4272 WAT       0.0685
   4273 WAT         3.6590   13.0940   27.5910 O      4273 WAT       0.0625
   4274 WAT         3.6590   13.0940   27.8410 O      4274 WAT       0.0479
   4275 WAT         3.6590   13.3440   27.0910 O      4275 WAT       0.0573
   4276 WAT         3.6590   13.3440   27.3410 O      4276 WAT       0.0658
   4277 WAT         3.6590   13.3440   27.5910 O      4277 WAT       0.0642
   4278 WAT         3.6590   13.3440   27.8410 O      4278 WAT       0.0525
   4279 WAT         3.6590   13.5940   27.3410 O      4279 WAT       0.0541
   4280 WAT         3.6590   13.5940   27.5910 O      4280 WAT       0.0590
   4281 WAT         3.6590   13.5940   27.8410 O      4281 WAT       0.0544
   4282 WAT         3.6590   13.8440   23.0910 O      4282 WAT       0.0453
   4283 WAT         3.6590   13.8440   23.3410 O      4283 WAT       0.0451
   4284 WAT         3.6590   13.8440   27.5910 O      4284 WAT       0.0520
   4285 WAT         3.6590   13.8440   27.8410 O      4285 WAT       0.0571
   4286 WAT         3.6590   13.8440   28.0910 O      4286 WAT       0.0539
   4287 WAT         3.6590   14.0940   23.0910 O      4287 WAT       0.0466
   4288 WAT         3.6590   14.0940   23.3410 O      4288 WAT       0.0469
   4289 WAT         3.6590   14.0940   27.5910 O      4289 WAT       0.0480
   4290 WAT         3.6590   14.0940   27.8410 O      4290 WAT       0.0630
   4291 WAT         3.6590   14.0940   28.0910 O      4291 WAT       0.0701
   4292 WAT         3.6590   14.0940   28.3410 O      4292 WAT       0.0653
   4293 WAT         3.6590   14.0940   28.5910 O      4293 WAT       0.0517
   4294 WAT         3.6590   14.3440   23.3410 O      4294 WAT       0.0456
   4295 WAT         3.6590   14.3440   27.5910 O      4295 WAT       0.0461
   4296 WAT         3.6590   14.3440   27.8410 O      4296 WAT       0.0679
   4297 WAT         3.6590   14.3440   28.0910 O      4297 WAT       0.0834
   4298 WAT         3.6590   14.3440   28.3410 O      4298 WAT       0.0842
   4299 WAT         3.6590   14.3440   28.5910 O      4299 WAT       0.0707
   4300 WAT         3.6590   14.3440   28.8410 O      4300 WAT       0.0517
   4301 WAT         3.6590   14.5940   27.8410 O      4301 WAT       0.0650
   4302 WAT         3.6590   14.5940   28.0910 O      4302 WAT       0.0827
   4303 WAT         3.6590   14.5940   28.3410 O      4303 WAT       0.0865
   4304 WAT         3.6590   14.5940   28.5910 O      4304 WAT       0.0751
   4305 WAT         3.6590   14.5940   28.8410 O      4305 WAT       0.0560
   4306 WAT         3.6590   14.8440   27.8410 O      4306 WAT       0.0539
   4307 WAT         3.6590   14.8440   28.0910 O      4307 WAT       0.0665
   4308 WAT         3.6590   14.8440   28.3410 O      4308 WAT       0.0691
   4309 WAT         3.6590   14.8440   28.5910 O      4309 WAT       0.0603
   4310 WAT         3.6590   14.8440   28.8410 O      4310 WAT       0.0454
   4311 WAT         3.6590   16.0940   24.0910 O      4311 WAT       0.0523
   4312 WAT         3.6590   16.0940   24.3410 O      4312 WAT       0.0585
   4313 WAT         3.6590   16.0940   24.5910 O      4313 WAT       0.0545
   4314 WAT         3.6590   16.3440   24.0910 O      4314 WAT       0.0618
   4315 WAT         3.6590   16.3440   24.3410 O      4315 WAT       0.0752
   4316 WAT         3.6590   16.3440   24.5910 O      4316 WAT       0.0754
   4317 WAT         3.6590   16.3440   24.8410 O      4317 WAT       0.0623
   4318 WAT         3.6590   16.5940   24.0910 O      4318 WAT       0.0679
   4319 WAT         3.6590   16.5940   24.3410 O      4319 WAT       0.0886
   4320 WAT         3.6590   16.5940   24.5910 O      4320 WAT       0.0947
   4321 WAT         3.6590   16.5940   24.8410 O      4321 WAT       0.0820
   4322 WAT         3.6590   16.5940   25.0910 O      4322 WAT       0.0578
   4323 WAT         3.6590   16.5940   29.3410 O      4323 WAT       0.0454
   4324 WAT         3.6590   16.8440   20.5910 O      4324 WAT       0.0489
   4325 WAT         3.6590   16.8440   20.8410 O      4325 WAT       0.0492
   4326 WAT         3.6590   16.8440   24.0910 O      4326 WAT       0.0678
   4327 WAT         3.6590   16.8440   24.3410 O      4327 WAT       0.0928
   4328 WAT         3.6590   16.8440   24.5910 O      4328 WAT       0.1040
   4329 WAT         3.6590   16.8440   24.8410 O      4329 WAT       0.0936
   4330 WAT         3.6590   16.8440   25.0910 O      4330 WAT       0.0669
   4331 WAT         3.6590   16.8440   29.3410 O      4331 WAT       0.0456
   4332 WAT         3.6590   17.0940   20.3410 O      4332 WAT       0.0542
   4333 WAT         3.6590   17.0940   20.5910 O      4333 WAT       0.0636
   4334 WAT         3.6590   17.0940   20.8410 O      4334 WAT       0.0662
   4335 WAT         3.6590   17.0940   21.0910 O      4335 WAT       0.0598
   4336 WAT         3.6590   17.0940   21.3410 O      4336 WAT       0.0466
   4337 WAT         3.6590   17.0940   24.0910 O      4337 WAT       0.0614
   4338 WAT         3.6590   17.0940   24.3410 O      4338 WAT       0.0857
   4339 WAT         3.6590   17.0940   24.5910 O      4339 WAT       0.0986
   4340 WAT         3.6590   17.0940   24.8410 O      4340 WAT       0.0904
   4341 WAT         3.6590   17.0940   25.0910 O      4341 WAT       0.0650
   4342 WAT         3.6590   17.3440   20.0910 O      4342 WAT       0.0466
   4343 WAT         3.6590   17.3440   20.3410 O      4343 WAT       0.0627
   4344 WAT         3.6590   17.3440   20.5910 O      4344 WAT       0.0764
   4345 WAT         3.6590   17.3440   20.8410 O      4345 WAT       0.0819
   4346 WAT         3.6590   17.3440   21.0910 O      4346 WAT       0.0749
   4347 WAT         3.6590   17.3440   21.3410 O      4347 WAT       0.0588
   4348 WAT         3.6590   17.3440   24.0910 O      4348 WAT       0.0512
   4349 WAT         3.6590   17.3440   24.3410 O      4349 WAT       0.0708
   4350 WAT         3.6590   17.3440   24.5910 O      4350 WAT       0.0810
   4351 WAT         3.6590   17.3440   24.8410 O      4351 WAT       0.0737
   4352 WAT         3.6590   17.3440   25.0910 O      4352 WAT       0.0522
   4353 WAT         3.6590   17.5940   20.0910 O      4353 WAT       0.0473
   4354 WAT         3.6590   17.5940   20.3410 O      4354 WAT       0.0656
   4355 WAT         3.6590   17.5940   20.5910 O      4355 WAT       0.0818
   4356 WAT         3.6590   17.5940   20.8410 O      4356 WAT       0.0890
   4357 WAT         3.6590   17.5940   21.0910 O      4357 WAT       0.0827
   4358 WAT         3.6590   17.5940   21.3410 O      4358 WAT       0.0661
   4359 WAT         3.6590   17.5940   21.5910 O      4359 WAT       0.0475
   4360 WAT         3.6590   17.5940   24.3410 O      4360 WAT       0.0533
   4361 WAT         3.6590   17.5940   24.5910 O      4361 WAT       0.0587
   4362 WAT         3.6590   17.5940   24.8410 O      4362 WAT       0.0514
   4363 WAT         3.6590   17.8440   20.3410 O      4363 WAT       0.0619
   4364 WAT         3.6590   17.8440   20.5910 O      4364 WAT       0.0772
   4365 WAT         3.6590   17.8440   20.8410 O      4365 WAT       0.0843
   4366 WAT         3.6590   17.8440   21.0910 O      4366 WAT       0.0792
   4367 WAT         3.6590   17.8440   21.3410 O      4367 WAT       0.0642
   4368 WAT         3.6590   17.8440   21.5910 O      4368 WAT       0.0468
   4369 WAT         3.6590   18.0940   20.3410 O      4369 WAT       0.0544
   4370 WAT         3.6590   18.0940   20.5910 O      4370 WAT       0.0661
   4371 WAT         3.6590   18.0940   20.8410 O      4371 WAT       0.0708
   4372 WAT         3.6590   18.0940   21.0910 O      4372 WAT       0.0658
   4373 WAT         3.6590   18.0940   21.3410 O      4373 WAT       0.0531
   4374 WAT         3.6590   18.3440   20.3410 O      4374 WAT       0.0467
   4375 WAT         3.6590   18.3440   20.5910 O      4375 WAT       0.0536
   4376 WAT         3.6590   18.3440   20.8410 O      4376 WAT       0.0545
   4377 WAT         3.6590   18.3440   21.0910 O      4377 WAT       0.0485
   4378 WAT         3.6590   18.5940   17.3410 O      4378 WAT       0.0467
   4379 WAT         3.6590   18.5940   17.5910 O      4379 WAT       0.0471
   4380 WAT         3.6590   18.5940   17.8410 O      4380 WAT       0.0457
   4381 WAT         3.6590   18.8440   16.8410 O      4381 WAT       0.0504
   4382 WAT         3.6590   18.8440   17.0910 O      4382 WAT       0.0543
   4383 WAT         3.6590   18.8440   17.3410 O      4383 WAT       0.0556
   4384 WAT         3.6590   18.8440   17.5910 O      4384 WAT       0.0545
   4385 WAT         3.6590   18.8440   17.8410 O      4385 WAT       0.0514
   4386 WAT         3.6590   18.8440   18.0910 O      4386 WAT       0.0470
   4387 WAT         3.6590   19.0940   16.5910 O      4387 WAT       0.0498
   4388 WAT         3.6590   19.0940   16.8410 O      4388 WAT       0.0563
   4389 WAT         3.6590   19.0940   17.0910 O      4389 WAT       0.0602
   4390 WAT         3.6590   19.0940   17.3410 O      4390 WAT       0.0602
   4391 WAT         3.6590   19.0940   17.5910 O      4391 WAT       0.0566
   4392 WAT         3.6590   19.0940   17.8410 O      4392 WAT       0.0506
   4393 WAT         3.6590   19.3440   16.5910 O      4393 WAT       0.0471
   4394 WAT         3.6590   19.3440   16.8410 O      4394 WAT       0.0531
   4395 WAT         3.6590   19.3440   17.0910 O      4395 WAT       0.0562
   4396 WAT         3.6590   19.3440   17.3410 O      4396 WAT       0.0548
   4397 WAT         3.6590   19.3440   17.5910 O      4397 WAT       0.0492
   4398 WAT         3.6590   20.0940   23.0910 O      4398 WAT       0.0467
   4399 WAT         3.6590   20.3440   23.0910 O      4399 WAT       0.0460
   4400 WAT         3.6590   20.5940   11.8410 O      4400 WAT       0.0472
   4401 WAT         3.6590   20.5940   12.0910 O      4401 WAT       0.0494
   4402 WAT         3.6590   20.8440   11.5910 O      4402 WAT       0.0524
   4403 WAT         3.6590   20.8440   11.8410 O      4403 WAT       0.0703
   4404 WAT         3.6590   20.8440   12.0910 O      4404 WAT       0.0766
   4405 WAT         3.6590   20.8440   12.3410 O      4405 WAT       0.0677
   4406 WAT         3.6590   20.8440   12.5910 O      4406 WAT       0.0502
   4407 WAT         3.6590   21.0940   11.5910 O      4407 WAT       0.0582
   4408 WAT         3.6590   21.0940   11.8410 O      4408 WAT       0.0805
   4409 WAT         3.6590   21.0940   12.0910 O      4409 WAT       0.0905
   4410 WAT         3.6590   21.0940   12.3410 O      4410 WAT       0.0822
   4411 WAT         3.6590   21.0940   12.5910 O      4411 WAT       0.0624
   4412 WAT         3.6590   21.3440   11.5910 O      4412 WAT       0.0484
   4413 WAT         3.6590   21.3440   11.8410 O      4413 WAT       0.0678
   4414 WAT         3.6590   21.3440   12.0910 O      4414 WAT       0.0784
   4415 WAT         3.6590   21.3440   12.3410 O      4415 WAT       0.0735
   4416 WAT         3.6590   21.3440   12.5910 O      4416 WAT       0.0579
   4417 WAT         3.6590   21.5940   12.0910 O      4417 WAT       0.0485
   4418 WAT         3.6590   21.5940   12.3410 O      4418 WAT       0.0475
   4419 WAT         3.6590   22.0940    7.8410 O      4419 WAT       0.0544
   4420 WAT         3.6590   22.0940    8.0910 O      4420 WAT       0.0638
   4421 WAT         3.6590   22.0940    8.3410 O      4421 WAT       0.0666
   4422 WAT         3.6590   22.0940    8.5910 O      4422 WAT       0.0623
   4423 WAT         3.6590   22.0940    8.8410 O      4423 WAT       0.0520
   4424 WAT         3.6590   22.3440    7.5910 O      4424 WAT       0.0610
   4425 WAT         3.6590   22.3440    7.8410 O      4425 WAT       0.0855
   4426 WAT         3.6590   22.3440    8.0910 O      4426 WAT       0.1072
   4427 WAT         3.6590   22.3440    8.3410 O      4427 WAT       0.1198
   4428 WAT         3.6590   22.3440    8.5910 O      4428 WAT       0.1180
   4429 WAT         3.6590   22.3440    8.8410 O      4429 WAT       0.0999
   4430 WAT         3.6590   22.3440    9.0910 O      4430 WAT       0.0707
   4431 WAT         3.6590   22.5940    7.5910 O      4431 WAT       0.0603
   4432 WAT         3.6590   22.5940    7.8410 O      4432 WAT       0.0897
   4433 WAT         3.6590   22.5940    8.0910 O      4433 WAT       0.1213
   4434 WAT         3.6590   22.5940    8.3410 O      4434 WAT       0.1463
   4435 WAT         3.6590   22.5940    8.5910 O      4435 WAT       0.1532
   4436 WAT         3.6590   22.5940    8.8410 O      4436 WAT       0.1340
   4437 WAT         3.6590   22.5940    9.0910 O      4437 WAT       0.0944
   4438 WAT         3.6590   22.5940    9.3410 O      4438 WAT       0.0522
   4439 WAT         3.6590   22.8440    7.8410 O      4439 WAT       0.0617
   4440 WAT         3.6590   22.8440    8.0910 O      4440 WAT       0.0908
   4441 WAT         3.6590   22.8440    8.3410 O      4441 WAT       0.1187
   4442 WAT         3.6590   22.8440    8.5910 O      4442 WAT       0.1324
   4443 WAT         3.6590   22.8440    8.8410 O      4443 WAT       0.1203
   4444 WAT         3.6590   22.8440    9.0910 O      4444 WAT       0.0856
   4445 WAT         3.6590   22.8440    9.3410 O      4445 WAT       0.0463
   4446 WAT         3.6590   23.0940    8.3410 O      4446 WAT       0.0632
   4447 WAT         3.6590   23.0940    8.5910 O      4447 WAT       0.0752
   4448 WAT         3.6590   23.0940    8.8410 O      4448 WAT       0.0710
   4449 WAT         3.6590   23.0940    9.0910 O      4449 WAT       0.0512
   4450 WAT         3.6590   23.3440    5.0910 O      4450 WAT       0.0540
   4451 WAT         3.6590   23.3440    5.3410 O      4451 WAT       0.0671
   4452 WAT         3.6590   23.3440    5.5910 O      4452 WAT       0.0619
   4453 WAT         3.6590   23.5940    4.8410 O      4453 WAT       0.0561
   4454 WAT         3.6590   23.5940    5.0910 O      4454 WAT       0.0829
   4455 WAT         3.6590   23.5940    5.3410 O      4455 WAT       0.0898
   4456 WAT         3.6590   23.5940    5.5910 O      4456 WAT       0.0714
   4457 WAT         3.6590   23.8440    4.5910 O      4457 WAT       0.0451
   4458 WAT         3.6590   23.8440    4.8410 O      4458 WAT       0.0802
   4459 WAT         3.6590   23.8440    5.0910 O      4459 WAT       0.1050
   4460 WAT         3.6590   23.8440    5.3410 O      4460 WAT       0.0994
   4461 WAT         3.6590   23.8440    5.5910 O      4461 WAT       0.0681
   4462 WAT         3.6590   24.0940    4.5910 O      4462 WAT       0.0597
   4463 WAT         3.6590   24.0940    4.8410 O      4463 WAT       0.0956
   4464 WAT         3.6590   24.0940    5.0910 O      4464 WAT       0.1108
   4465 WAT         3.6590   24.0940    5.3410 O      4465 WAT       0.0917
   4466 WAT         3.6590   24.0940    5.5910 O      4466 WAT       0.0543
   4467 WAT         3.6590   24.3440    4.5910 O      4467 WAT       0.0669
   4468 WAT         3.6590   24.3440    4.8410 O      4468 WAT       0.0962
   4469 WAT         3.6590   24.3440    5.0910 O      4469 WAT       0.0989
   4470 WAT         3.6590   24.3440    5.3410 O      4470 WAT       0.0718
   4471 WAT         3.6590   24.5940    4.5910 O      4471 WAT       0.0635
   4472 WAT         3.6590   24.5940    4.8410 O      4472 WAT       0.0819
   4473 WAT         3.6590   24.5940    5.0910 O      4473 WAT       0.0751
   4474 WAT         3.6590   24.5940    5.3410 O      4474 WAT       0.0481
   4475 WAT         3.6590   24.8440    4.5910 O      4475 WAT       0.0514
   4476 WAT         3.6590   24.8440    4.8410 O      4476 WAT       0.0588
   4477 WAT         3.6590   24.8440    5.0910 O      4477 WAT       0.0482
   4478 WAT         3.6590   27.8440    2.5910 O      4478 WAT       0.0471
   4479 WAT         3.6590   27.8440    2.8410 O      4479 WAT       0.0517
   4480 WAT         3.6590   28.0940    2.5910 O      4480 WAT       0.0596
   4481 WAT         3.6590   28.0940    2.8410 O      4481 WAT       0.0637
   4482 WAT         3.6590   28.0940    3.0910 O      4482 WAT       0.0537
   4483 WAT         3.6590   28.3440    2.5910 O      4483 WAT       0.0693
   4484 WAT         3.6590   28.3440    2.8410 O      4484 WAT       0.0720
   4485 WAT         3.6590   28.3440    3.0910 O      4485 WAT       0.0596
   4486 WAT         3.6590   28.5940    2.5910 O      4486 WAT       0.0733
   4487 WAT         3.6590   28.5940    2.8410 O      4487 WAT       0.0740
   4488 WAT         3.6590   28.5940    3.0910 O      4488 WAT       0.0603
   4489 WAT         3.6590   28.8440    2.5910 O      4489 WAT       0.0710
   4490 WAT         3.6590   28.8440    2.8410 O      4490 WAT       0.0697
   4491 WAT         3.6590   28.8440    3.0910 O      4491 WAT       0.0563
   4492 WAT         3.6590   29.0940    2.5910 O      4492 WAT       0.0647
   4493 WAT         3.6590   29.0940    2.8410 O      4493 WAT       0.0622
   4494 WAT         3.6590   29.0940    3.0910 O      4494 WAT       0.0502
   4495 WAT         3.6590   29.3440    2.5910 O      4495 WAT       0.0575
   4496 WAT         3.6590   29.3440    2.8410 O      4496 WAT       0.0546
   4497 WAT         3.6590   29.5940    2.5910 O      4497 WAT       0.0511
   4498 WAT         3.6590   29.5940    2.8410 O      4498 WAT       0.0484
   4499 WAT         3.6590   30.0940    4.3410 O      4499 WAT       0.0474
   4500 WAT         3.6590   30.0940    4.5910 O      4500 WAT       0.0483
   4501 WAT         3.9090    8.3440   25.5910 O      4501 WAT       0.0576
   4502 WAT         3.9090    8.3440   25.8410 O      4502 WAT       0.0890
   4503 WAT         3.9090    8.3440   26.0910 O      4503 WAT       0.1166
   4504 WAT         3.9090    8.3440   26.3410 O      4504 WAT       0.1291
   4505 WAT         3.9090    8.3440   26.5910 O      4505 WAT       0.1204
   4506 WAT         3.9090    8.3440   26.8410 O      4506 WAT       0.0938
   4507 WAT         3.9090    8.3440   27.0910 O      4507 WAT       0.0615
   4508 WAT         3.9090    8.3440   27.8410 O      4508 WAT       0.0464
   4509 WAT         3.9090    8.3440   28.0910 O      4509 WAT       0.0736
   4510 WAT         3.9090    8.3440   28.3410 O      4510 WAT       0.0920
   4511 WAT         3.9090    8.3440   28.5910 O      4511 WAT       0.0851
   4512 WAT         3.9090    8.3440   28.8410 O      4512 WAT       0.0586
   4513 WAT         3.9090    8.5940   25.5910 O      4513 WAT       0.0555
   4514 WAT         3.9090    8.5940   25.8410 O      4514 WAT       0.0804
   4515 WAT         3.9090    8.5940   26.0910 O      4515 WAT       0.1025
   4516 WAT         3.9090    8.5940   26.3410 O      4516 WAT       0.1139
   4517 WAT         3.9090    8.5940   26.5910 O      4517 WAT       0.1083
   4518 WAT         3.9090    8.5940   26.8410 O      4518 WAT       0.0866
   4519 WAT         3.9090    8.5940   27.0910 O      4519 WAT       0.0583
   4520 WAT         3.9090    8.5940   27.8410 O      4520 WAT       0.0475
   4521 WAT         3.9090    8.5940   28.0910 O      4521 WAT       0.0732
   4522 WAT         3.9090    8.5940   28.3410 O      4522 WAT       0.0877
   4523 WAT         3.9090    8.5940   28.5910 O      4523 WAT       0.0772
   4524 WAT         3.9090    8.5940   28.8410 O      4524 WAT       0.0501
   4525 WAT         3.9090    8.8440   25.5910 O      4525 WAT       0.0524
   4526 WAT         3.9090    8.8440   25.8410 O      4526 WAT       0.0678
   4527 WAT         3.9090    8.8440   26.0910 O      4527 WAT       0.0783
   4528 WAT         3.9090    8.8440   26.3410 O      4528 WAT       0.0809
   4529 WAT         3.9090    8.8440   26.5910 O      4529 WAT       0.0738
   4530 WAT         3.9090    8.8440   26.8410 O      4530 WAT       0.0581
   4531 WAT         3.9090    8.8440   28.0910 O      4531 WAT       0.0592
   4532 WAT         3.9090    8.8440   28.3410 O      4532 WAT       0.0691
   4533 WAT         3.9090    8.8440   28.5910 O      4533 WAT       0.0587
   4534 WAT         3.9090    9.0940   25.5910 O      4534 WAT       0.0514
   4535 WAT         3.9090    9.0940   25.8410 O      4535 WAT       0.0596
   4536 WAT         3.9090    9.0940   26.0910 O      4536 WAT       0.0597
   4537 WAT         3.9090    9.0940   26.3410 O      4537 WAT       0.0531
   4538 WAT         3.9090    9.0940   28.3410 O      4538 WAT       0.0505
   4539 WAT         3.9090    9.3440   25.5910 O      4539 WAT       0.0512
   4540 WAT         3.9090    9.3440   25.8410 O      4540 WAT       0.0558
   4541 WAT         3.9090    9.3440   26.0910 O      4541 WAT       0.0505
   4542 WAT         3.9090    9.5940   25.5910 O      4542 WAT       0.0503
   4543 WAT         3.9090    9.5940   25.8410 O      4543 WAT       0.0536
   4544 WAT         3.9090    9.5940   26.0910 O      4544 WAT       0.0467
   4545 WAT         3.9090    9.5940   28.3410 O      4545 WAT       0.0484
   4546 WAT         3.9090    9.8440   25.5910 O      4546 WAT       0.0475
   4547 WAT         3.9090    9.8440   25.8410 O      4547 WAT       0.0504
   4548 WAT         3.9090    9.8440   28.0910 O      4548 WAT       0.0648
   4549 WAT         3.9090    9.8440   28.3410 O      4549 WAT       0.0798
   4550 WAT         3.9090    9.8440   28.5910 O      4550 WAT       0.0714
   4551 WAT         3.9090    9.8440   28.8410 O      4551 WAT       0.0472
   4552 WAT         3.9090   10.0940   25.8410 O      4552 WAT       0.0451
   4553 WAT         3.9090   10.0940   27.8410 O      4553 WAT       0.0700
   4554 WAT         3.9090   10.0940   28.0910 O      4554 WAT       0.1169
   4555 WAT         3.9090   10.0940   28.3410 O      4555 WAT       0.1416
   4556 WAT         3.9090   10.0940   28.5910 O      4556 WAT       0.1261
   4557 WAT         3.9090   10.0940   28.8410 O      4557 WAT       0.0841
   4558 WAT         3.9090   10.3440   27.5910 O      4558 WAT       0.0531
   4559 WAT         3.9090   10.3440   27.8410 O      4559 WAT       0.1165
   4560 WAT         3.9090   10.3440   28.0910 O      4560 WAT       0.1882
   4561 WAT         3.9090   10.3440   28.3410 O      4561 WAT       0.2232
   4562 WAT         3.9090   10.3440   28.5910 O      4562 WAT       0.1968
   4563 WAT         3.9090   10.3440   28.8410 O      4563 WAT       0.1319
   4564 WAT         3.9090   10.3440   29.0910 O      4564 WAT       0.0691
   4565 WAT         3.9090   10.5940   27.5910 O      4565 WAT       0.0748
   4566 WAT         3.9090   10.5940   27.8410 O      4566 WAT       0.1577
   4567 WAT         3.9090   10.5940   28.0910 O      4567 WAT       0.2469
   4568 WAT         3.9090   10.5940   28.3410 O      4568 WAT       0.2864
   4569 WAT         3.9090   10.5940   28.5910 O      4569 WAT       0.2498
   4570 WAT         3.9090   10.5940   28.8410 O      4570 WAT       0.1682
   4571 WAT         3.9090   10.5940   29.0910 O      4571 WAT       0.0904
   4572 WAT         3.9090   10.8440   27.5910 O      4572 WAT       0.0832
   4573 WAT         3.9090   10.8440   27.8410 O      4573 WAT       0.1669
   4574 WAT         3.9090   10.8440   28.0910 O      4574 WAT       0.2526
   4575 WAT         3.9090   10.8440   28.3410 O      4575 WAT       0.2866
   4576 WAT         3.9090   10.8440   28.5910 O      4576 WAT       0.2475
   4577 WAT         3.9090   10.8440   28.8410 O      4577 WAT       0.1677
   4578 WAT         3.9090   10.8440   29.0910 O      4578 WAT       0.0926
   4579 WAT         3.9090   11.0940   27.5910 O      4579 WAT       0.0736
   4580 WAT         3.9090   11.0940   27.8410 O      4580 WAT       0.1373
   4581 WAT         3.9090   11.0940   28.0910 O      4581 WAT       0.1982
   4582 WAT         3.9090   11.0940   28.3410 O      4582 WAT       0.2187
   4583 WAT         3.9090   11.0940   28.5910 O      4583 WAT       0.1868
   4584 WAT         3.9090   11.0940   28.8410 O      4584 WAT       0.1274
   4585 WAT         3.9090   11.0940   29.0910 O      4585 WAT       0.0723
   4586 WAT         3.9090   11.3440   27.5910 O      4586 WAT       0.0551
   4587 WAT         3.9090   11.3440   27.8410 O      4587 WAT       0.0911
   4588 WAT         3.9090   11.3440   28.0910 O      4588 WAT       0.1212
   4589 WAT         3.9090   11.3440   28.3410 O      4589 WAT       0.1273
   4590 WAT         3.9090   11.3440   28.5910 O      4590 WAT       0.1064
   4591 WAT         3.9090   11.3440   28.8410 O      4591 WAT       0.0727
   4592 WAT         3.9090   11.5940   27.8410 O      4592 WAT       0.0545
   4593 WAT         3.9090   11.5940   28.0910 O      4593 WAT       0.0624
   4594 WAT         3.9090   11.5940   28.3410 O      4594 WAT       0.0592
   4595 WAT         3.9090   11.5940   28.5910 O      4595 WAT       0.0467
   4596 WAT         3.9090   12.5940   26.5910 O      4596 WAT       0.0463
   4597 WAT         3.9090   12.5940   26.8410 O      4597 WAT       0.0502
   4598 WAT         3.9090   12.5940   27.0910 O      4598 WAT       0.0514
   4599 WAT         3.9090   12.5940   27.3410 O      4599 WAT       0.0481
   4600 WAT         3.9090   12.8440   26.5910 O      4600 WAT       0.0480
   4601 WAT         3.9090   12.8440   26.8410 O      4601 WAT       0.0566
   4602 WAT         3.9090   12.8440   27.0910 O      4602 WAT       0.0608
   4603 WAT         3.9090   12.8440   27.3410 O      4603 WAT       0.0575
   4604 WAT         3.9090   12.8440   27.5910 O      4604 WAT       0.0457
   4605 WAT         3.9090   13.0940   26.8410 O      4605 WAT       0.0543
   4606 WAT         3.9090   13.0940   27.0910 O      4606 WAT       0.0624
   4607 WAT         3.9090   13.0940   27.3410 O      4607 WAT       0.0618
   4608 WAT         3.9090   13.0940   27.5910 O      4608 WAT       0.0508
   4609 WAT         3.9090   13.3440   27.0910 O      4609 WAT       0.0538
   4610 WAT         3.9090   13.3440   27.3410 O      4610 WAT       0.0576
   4611 WAT         3.9090   13.3440   27.5910 O      4611 WAT       0.0508
   4612 WAT         3.9090   13.5940   22.8410 O      4612 WAT       0.0459
   4613 WAT         3.9090   13.5940   23.0910 O      4613 WAT       0.0472
   4614 WAT         3.9090   13.5940   23.3410 O      4614 WAT       0.0458
   4615 WAT         3.9090   13.5940   27.3410 O      4615 WAT       0.0463
   4616 WAT         3.9090   13.5940   27.5910 O      4616 WAT       0.0457
   4617 WAT         3.9090   13.8440   22.8410 O      4617 WAT       0.0483
   4618 WAT         3.9090   13.8440   23.0910 O      4618 WAT       0.0507
   4619 WAT         3.9090   13.8440   23.3410 O      4619 WAT       0.0501
   4620 WAT         3.9090   13.8440   23.5910 O      4620 WAT       0.0458
   4621 WAT         3.9090   14.0940   22.8410 O      4621 WAT       0.0475
   4622 WAT         3.9090   14.0940   23.0910 O      4622 WAT       0.0507
   4623 WAT         3.9090   14.0940   23.3410 O      4623 WAT       0.0508
   4624 WAT         3.9090   14.0940   23.5910 O      4624 WAT       0.0468
   4625 WAT         3.9090   14.0940   28.0910 O      4625 WAT       0.0451
   4626 WAT         3.9090   14.3440   23.0910 O      4626 WAT       0.0470
   4627 WAT         3.9090   14.3440   23.3410 O      4627 WAT       0.0475
   4628 WAT         3.9090   14.3440   27.8410 O      4628 WAT       0.0489
   4629 WAT         3.9090   14.3440   28.0910 O      4629 WAT       0.0554
   4630 WAT         3.9090   14.3440   28.3410 O      4630 WAT       0.0515
   4631 WAT         3.9090   14.5940   27.8410 O      4631 WAT       0.0469
   4632 WAT         3.9090   14.5940   28.0910 O      4632 WAT       0.0559
   4633 WAT         3.9090   14.5940   28.3410 O      4633 WAT       0.0547
   4634 WAT         3.9090   14.8440   28.0910 O      4634 WAT       0.0450
   4635 WAT         3.9090   15.5940   26.3410 O      4635 WAT       0.0486
   4636 WAT         3.9090   15.5940   26.5910 O      4636 WAT       0.0508
   4637 WAT         3.9090   15.5940   26.8410 O      4637 WAT       0.0464
   4638 WAT         3.9090   15.8440   26.3410 O      4638 WAT       0.0468
   4639 WAT         3.9090   15.8440   26.5910 O      4639 WAT       0.0489
   4640 WAT         3.9090   16.0940   29.0910 O      4640 WAT       0.0541
   4641 WAT         3.9090   16.0940   29.3410 O      4641 WAT       0.0559
   4642 WAT         3.9090   16.3440   24.3410 O      4642 WAT       0.0552
   4643 WAT         3.9090   16.3440   24.5910 O      4643 WAT       0.0571
   4644 WAT         3.9090   16.3440   24.8410 O      4644 WAT       0.0492
   4645 WAT         3.9090   16.3440   28.8410 O      4645 WAT       0.0683
   4646 WAT         3.9090   16.3440   29.0910 O      4646 WAT       0.1005
   4647 WAT         3.9090   16.3440   29.3410 O      4647 WAT       0.1075
   4648 WAT         3.9090   16.3440   29.5910 O      4648 WAT       0.0785
   4649 WAT         3.9090   16.5940   20.5910 O      4649 WAT       0.0462
   4650 WAT         3.9090   16.5940   24.0910 O      4650 WAT       0.0472
   4651 WAT         3.9090   16.5940   24.3410 O      4651 WAT       0.0627
   4652 WAT         3.9090   16.5940   24.5910 O      4652 WAT       0.0683
   4653 WAT         3.9090   16.5940   24.8410 O      4653 WAT       0.0604
   4654 WAT         3.9090   16.5940   28.8410 O      4654 WAT       0.0867
   4655 WAT         3.9090   16.5940   29.0910 O      4655 WAT       0.1333
   4656 WAT         3.9090   16.5940   29.3410 O      4656 WAT       0.1480
   4657 WAT         3.9090   16.5940   29.5910 O      4657 WAT       0.1116
   4658 WAT         3.9090   16.8440   20.3410 O      4658 WAT       0.0544
   4659 WAT         3.9090   16.8440   20.5910 O      4659 WAT       0.0613
   4660 WAT         3.9090   16.8440   20.8410 O      4660 WAT       0.0602
   4661 WAT         3.9090   16.8440   21.0910 O      4661 WAT       0.0503
   4662 WAT         3.9090   16.8440   24.0910 O      4662 WAT       0.0456
   4663 WAT         3.9090   16.8440   24.3410 O      4663 WAT       0.0630
   4664 WAT         3.9090   16.8440   24.5910 O      4664 WAT       0.0712
   4665 WAT         3.9090   16.8440   24.8410 O      4665 WAT       0.0642
   4666 WAT         3.9090   16.8440   25.0910 O      4666 WAT       0.0461
   4667 WAT         3.9090   16.8440   28.8410 O      4667 WAT       0.0786
   4668 WAT         3.9090   16.8440   29.0910 O      4668 WAT       0.1273
   4669 WAT         3.9090   16.8440   29.3410 O      4669 WAT       0.1471
   4670 WAT         3.9090   16.8440   29.5910 O      4670 WAT       0.1144
   4671 WAT         3.9090   17.0940   20.0910 O      4671 WAT       0.0509
   4672 WAT         3.9090   17.0940   20.3410 O      4672 WAT       0.0672
   4673 WAT         3.9090   17.0940   20.5910 O      4673 WAT       0.0792
   4674 WAT         3.9090   17.0940   20.8410 O      4674 WAT       0.0801
   4675 WAT         3.9090   17.0940   21.0910 O      4675 WAT       0.0676
   4676 WAT         3.9090   17.0940   21.3410 O      4676 WAT       0.0478
   4677 WAT         3.9090   17.0940   24.3410 O      4677 WAT       0.0550
   4678 WAT         3.9090   17.0940   24.5910 O      4678 WAT       0.0631
   4679 WAT         3.9090   17.0940   24.8410 O      4679 WAT       0.0573
   4680 WAT         3.9090   17.0940   28.8410 O      4680 WAT       0.0514
   4681 WAT         3.9090   17.0940   29.0910 O      4681 WAT       0.0884
   4682 WAT         3.9090   17.0940   29.3410 O      4682 WAT       0.1064
   4683 WAT         3.9090   17.0940   29.5910 O      4683 WAT       0.0851
   4684 WAT         3.9090   17.3440   20.0910 O      4684 WAT       0.0566
   4685 WAT         3.9090   17.3440   20.3410 O      4685 WAT       0.0782
   4686 WAT         3.9090   17.3440   20.5910 O      4686 WAT       0.0953
   4687 WAT         3.9090   17.3440   20.8410 O      4687 WAT       0.0986
   4688 WAT         3.9090   17.3440   21.0910 O      4688 WAT       0.0843
   4689 WAT         3.9090   17.3440   21.3410 O      4689 WAT       0.0600
   4690 WAT         3.9090   17.3440   24.5910 O      4690 WAT       0.0477
   4691 WAT         3.9090   17.3440   29.0910 O      4691 WAT       0.0452
   4692 WAT         3.9090   17.3440   29.3410 O      4692 WAT       0.0567
   4693 WAT         3.9090   17.3440   29.5910 O      4693 WAT       0.0463
   4694 WAT         3.9090   17.5940   20.0910 O      4694 WAT       0.0586
   4695 WAT         3.9090   17.5940   20.3410 O      4695 WAT       0.0829
   4696 WAT         3.9090   17.5940   20.5910 O      4696 WAT       0.1029
   4697 WAT         3.9090   17.5940   20.8410 O      4697 WAT       0.1077
   4698 WAT         3.9090   17.5940   21.0910 O      4698 WAT       0.0934
   4699 WAT         3.9090   17.5940   21.3410 O      4699 WAT       0.0676
   4700 WAT         3.9090   17.8440   20.0910 O      4700 WAT       0.0563
   4701 WAT         3.9090   17.8440   20.3410 O      4701 WAT       0.0796
   4702 WAT         3.9090   17.8440   20.5910 O      4702 WAT       0.0986
   4703 WAT         3.9090   17.8440   20.8410 O      4703 WAT       0.1034
   4704 WAT         3.9090   17.8440   21.0910 O      4704 WAT       0.0903
   4705 WAT         3.9090   17.8440   21.3410 O      4705 WAT       0.0661
   4706 WAT         3.9090   18.0940   20.0910 O      4706 WAT       0.0518
   4707 WAT         3.9090   18.0940   20.3410 O      4707 WAT       0.0709
   4708 WAT         3.9090   18.0940   20.5910 O      4708 WAT       0.0856
   4709 WAT         3.9090   18.0940   20.8410 O      4709 WAT       0.0882
   4710 WAT         3.9090   18.0940   21.0910 O      4710 WAT       0.0762
   4711 WAT         3.9090   18.0940   21.3410 O      4711 WAT       0.0553
   4712 WAT         3.9090   18.3440   17.5910 O      4712 WAT       0.0479
   4713 WAT         3.9090   18.3440   17.8410 O      4713 WAT       0.0521
   4714 WAT         3.9090   18.3440   18.0910 O      4714 WAT       0.0517
   4715 WAT         3.9090   18.3440   18.3410 O      4715 WAT       0.0470
   4716 WAT         3.9090   18.3440   20.0910 O      4716 WAT       0.0463
   4717 WAT         3.9090   18.3440   20.3410 O      4717 WAT       0.0599
   4718 WAT         3.9090   18.3440   20.5910 O      4718 WAT       0.0691
   4719 WAT         3.9090   18.3440   20.8410 O      4719 WAT       0.0684
   4720 WAT         3.9090   18.3440   21.0910 O      4720 WAT       0.0571
   4721 WAT         3.9090   18.5940   17.3410 O      4721 WAT       0.0468
   4722 WAT         3.9090   18.5940   17.5910 O      4722 WAT       0.0542
   4723 WAT         3.9090   18.5940   17.8410 O      4723 WAT       0.0576
   4724 WAT         3.9090   18.5940   18.0910 O      4724 WAT       0.0561
   4725 WAT         3.9090   18.5940   18.3410 O      4725 WAT       0.0505
   4726 WAT         3.9090   18.5940   20.3410 O      4726 WAT       0.0479
   4727 WAT         3.9090   18.5940   20.5910 O      4727 WAT       0.0524
   4728 WAT         3.9090   18.5940   20.8410 O      4728 WAT       0.0493
   4729 WAT         3.9090   18.8440   17.3410 O      4729 WAT       0.0512
   4730 WAT         3.9090   18.8440   17.5910 O      4730 WAT       0.0567
   4731 WAT         3.9090   18.8440   17.8410 O      4731 WAT       0.0575
   4732 WAT         3.9090   18.8440   18.0910 O      4732 WAT       0.0535
   4733 WAT         3.9090   18.8440   18.3410 O      4733 WAT       0.0464
   4734 WAT         3.9090   19.0940   17.3410 O      4734 WAT       0.0504
   4735 WAT         3.9090   19.0940   17.5910 O      4735 WAT       0.0522
   4736 WAT         3.9090   19.0940   17.8410 O      4736 WAT       0.0491
   4737 WAT         3.9090   19.5940   22.8410 O      4737 WAT       0.0523
   4738 WAT         3.9090   19.5940   23.0910 O      4738 WAT       0.0542
   4739 WAT         3.9090   19.8440   22.5910 O      4739 WAT       0.0533
   4740 WAT         3.9090   19.8440   22.8410 O      4740 WAT       0.0680
   4741 WAT         3.9090   19.8440   23.0910 O      4741 WAT       0.0704
   4742 WAT         3.9090   19.8440   23.3410 O      4742 WAT       0.0575
   4743 WAT         3.9090   20.0940   22.5910 O      4743 WAT       0.0586
   4744 WAT         3.9090   20.0940   22.8410 O      4744 WAT       0.0770
   4745 WAT         3.9090   20.0940   23.0910 O      4745 WAT       0.0805
   4746 WAT         3.9090   20.0940   23.3410 O      4746 WAT       0.0656
   4747 WAT         3.9090   20.3440   22.5910 O      4747 WAT       0.0511
   4748 WAT         3.9090   20.3440   22.8410 O      4748 WAT       0.0699
   4749 WAT         3.9090   20.3440   23.0910 O      4749 WAT       0.0748
   4750 WAT         3.9090   20.3440   23.3410 O      4750 WAT       0.0617
   4751 WAT         3.9090   20.5940   11.5910 O      4751 WAT       0.0532
   4752 WAT         3.9090   20.5940   11.8410 O      4752 WAT       0.0618
   4753 WAT         3.9090   20.5940   12.0910 O      4753 WAT       0.0555
   4754 WAT         3.9090   20.5940   22.8410 O      4754 WAT       0.0479
   4755 WAT         3.9090   20.5940   23.0910 O      4755 WAT       0.0532
   4756 WAT         3.9090   20.5940   23.3410 O      4756 WAT       0.0453
   4757 WAT         3.9090   20.8440   11.3410 O      4757 WAT       0.0536
   4758 WAT         3.9090   20.8440   11.5910 O      4758 WAT       0.0835
   4759 WAT         3.9090   20.8440   11.8410 O      4759 WAT       0.1019
   4760 WAT         3.9090   20.8440   12.0910 O      4760 WAT       0.0950
   4761 WAT         3.9090   20.8440   12.3410 O      4761 WAT       0.0681
   4762 WAT         3.9090   21.0940   11.3410 O      4762 WAT       0.0610
   4763 WAT         3.9090   21.0940   11.5910 O      4763 WAT       0.0979
   4764 WAT         3.9090   21.0940   11.8410 O      4764 WAT       0.1238
   4765 WAT         3.9090   21.0940   12.0910 O      4765 WAT       0.1192
   4766 WAT         3.9090   21.0940   12.3410 O      4766 WAT       0.0879
   4767 WAT         3.9090   21.0940   12.5910 O      4767 WAT       0.0516
   4768 WAT         3.9090   21.3440   11.3410 O      4768 WAT       0.0512
   4769 WAT         3.9090   21.3440   11.5910 O      4769 WAT       0.0826
   4770 WAT         3.9090   21.3440   11.8410 O      4770 WAT       0.1070
   4771 WAT         3.9090   21.3440   12.0910 O      4771 WAT       0.1060
   4772 WAT         3.9090   21.3440   12.3410 O      4772 WAT       0.0806
   4773 WAT         3.9090   21.3440   12.5910 O      4773 WAT       0.0490
   4774 WAT         3.9090   21.5940   11.5910 O      4774 WAT       0.0488
   4775 WAT         3.9090   21.5940   11.8410 O      4775 WAT       0.0642
   4776 WAT         3.9090   21.5940   12.0910 O      4776 WAT       0.0653
   4777 WAT         3.9090   21.5940   12.3410 O      4777 WAT       0.0514
   4778 WAT         3.9090   22.0940    7.8410 O      4778 WAT       0.0464
   4779 WAT         3.9090   22.0940    8.0910 O      4779 WAT       0.0557
   4780 WAT         3.9090   22.0940    8.3410 O      4780 WAT       0.0601
   4781 WAT         3.9090   22.0940    8.5910 O      4781 WAT       0.0585
   4782 WAT         3.9090   22.0940    8.8410 O      4782 WAT       0.0511
   4783 WAT         3.9090   22.3440    7.5910 O      4783 WAT       0.0482
   4784 WAT         3.9090   22.3440    7.8410 O      4784 WAT       0.0683
   4785 WAT         3.9090   22.3440    8.0910 O      4785 WAT       0.0876
   4786 WAT         3.9090   22.3440    8.3410 O      4786 WAT       0.1013
   4787 WAT         3.9090   22.3440    8.5910 O      4787 WAT       0.1042
   4788 WAT         3.9090   22.3440    8.8410 O      4788 WAT       0.0926
   4789 WAT         3.9090   22.3440    9.0910 O      4789 WAT       0.0686
   4790 WAT         3.9090   22.5940    7.8410 O      4790 WAT       0.0669
   4791 WAT         3.9090   22.5940    8.0910 O      4791 WAT       0.0928
   4792 WAT         3.9090   22.5940    8.3410 O      4792 WAT       0.1161
   4793 WAT         3.9090   22.5940    8.5910 O      4793 WAT       0.1275
   4794 WAT         3.9090   22.5940    8.8410 O      4794 WAT       0.1177
   4795 WAT         3.9090   22.5940    9.0910 O      4795 WAT       0.0873
   4796 WAT         3.9090   22.5940    9.3410 O      4796 WAT       0.0502
   4797 WAT         3.9090   22.8440    8.0910 O      4797 WAT       0.0646
   4798 WAT         3.9090   22.8440    8.3410 O      4798 WAT       0.0882
   4799 WAT         3.9090   22.8440    8.5910 O      4799 WAT       0.1038
   4800 WAT         3.9090   22.8440    8.8410 O      4800 WAT       0.0999
   4801 WAT         3.9090   22.8440    9.0910 O      4801 WAT       0.0751
   4802 WAT         3.9090   23.0940    5.5910 O      4802 WAT       0.0470
   4803 WAT         3.9090   23.0940    8.5910 O      4803 WAT       0.0552
   4804 WAT         3.9090   23.0940    8.8410 O      4804 WAT       0.0555
   4805 WAT         3.9090   23.3440    5.0910 O      4805 WAT       0.0591
   4806 WAT         3.9090   23.3440    5.3410 O      4806 WAT       0.0723
   4807 WAT         3.9090   23.3440    5.5910 O      4807 WAT       0.0654
   4808 WAT         3.9090   23.5940    4.8410 O      4808 WAT       0.0618
   4809 WAT         3.9090   23.5940    5.0910 O      4809 WAT       0.0903
   4810 WAT         3.9090   23.5940    5.3410 O      4810 WAT       0.0959
   4811 WAT         3.9090   23.5940    5.5910 O      4811 WAT       0.0743
   4812 WAT         3.9090   23.8440    4.5910 O      4812 WAT       0.0493
   4813 WAT         3.9090   23.8440    4.8410 O      4813 WAT       0.0880
   4814 WAT         3.9090   23.8440    5.0910 O      4814 WAT       0.1136
   4815 WAT         3.9090   23.8440    5.3410 O      4815 WAT       0.1051
   4816 WAT         3.9090   23.8440    5.5910 O      4816 WAT       0.0699
   4817 WAT         3.9090   24.0940    4.5910 O      4817 WAT       0.0651
   4818 WAT         3.9090   24.0940    4.8410 O      4818 WAT       0.1038
   4819 WAT         3.9090   24.0940    5.0910 O      4819 WAT       0.1184
   4820 WAT         3.9090   24.0940    5.3410 O      4820 WAT       0.0958
   4821 WAT         3.9090   24.0940    5.5910 O      4821 WAT       0.0549
   4822 WAT         3.9090   24.3440    4.5910 O      4822 WAT       0.0723
   4823 WAT         3.9090   24.3440    4.8410 O      4823 WAT       0.1030
   4824 WAT         3.9090   24.3440    5.0910 O      4824 WAT       0.1040
   4825 WAT         3.9090   24.3440    5.3410 O      4825 WAT       0.0736
   4826 WAT         3.9090   24.5940    4.5910 O      4826 WAT       0.0673
   4827 WAT         3.9090   24.5940    4.8410 O      4827 WAT       0.0858
   4828 WAT         3.9090   24.5940    5.0910 O      4828 WAT       0.0772
   4829 WAT         3.9090   24.5940    5.3410 O      4829 WAT       0.0481
   4830 WAT         3.9090   24.8440    4.5910 O      4830 WAT       0.0525
   4831 WAT         3.9090   24.8440    4.8410 O      4831 WAT       0.0594
   4832 WAT         3.9090   24.8440    5.0910 O      4832 WAT       0.0477
   4833 WAT         3.9090   25.8440    3.0910 O      4833 WAT       0.0451
   4834 WAT         3.9090   25.8440    3.3410 O      4834 WAT       0.0455
   4835 WAT         3.9090   27.5940    2.5910 O      4835 WAT       0.0453
   4836 WAT         3.9090   27.5940    2.8410 O      4836 WAT       0.0481
   4837 WAT         3.9090   27.8440    2.5910 O      4837 WAT       0.0583
   4838 WAT         3.9090   27.8440    2.8410 O      4838 WAT       0.0616
   4839 WAT         3.9090   27.8440    3.0910 O      4839 WAT       0.0500
   4840 WAT         3.9090   28.0940    2.5910 O      4840 WAT       0.0725
   4841 WAT         3.9090   28.0940    2.8410 O      4841 WAT       0.0753
   4842 WAT         3.9090   28.0940    3.0910 O      4842 WAT       0.0601
   4843 WAT         3.9090   28.3440    2.5910 O      4843 WAT       0.0837
   4844 WAT         3.9090   28.3440    2.8410 O      4844 WAT       0.0846
   4845 WAT         3.9090   28.3440    3.0910 O      4845 WAT       0.0664
   4846 WAT         3.9090   28.5940    2.5910 O      4846 WAT       0.0881
   4847 WAT         3.9090   28.5940    2.8410 O      4847 WAT       0.0863
   4848 WAT         3.9090   28.5940    3.0910 O      4848 WAT       0.0663
   4849 WAT         3.9090   28.8440    2.5910 O      4849 WAT       0.0845
   4850 WAT         3.9090   28.8440    2.8410 O      4850 WAT       0.0801
   4851 WAT         3.9090   28.8440    3.0910 O      4851 WAT       0.0605
   4852 WAT         3.9090   29.0940    2.5910 O      4852 WAT       0.0755
   4853 WAT         3.9090   29.0940    2.8410 O      4853 WAT       0.0698
   4854 WAT         3.9090   29.0940    3.0910 O      4854 WAT       0.0523
   4855 WAT         3.9090   29.3440    2.5910 O      4855 WAT       0.0655
   4856 WAT         3.9090   29.3440    2.8410 O      4856 WAT       0.0596
   4857 WAT         3.9090   29.5940    2.5910 O      4857 WAT       0.0565
   4858 WAT         3.9090   29.5940    2.8410 O      4858 WAT       0.0512
   4859 WAT         3.9090   29.8440    2.5910 O      4859 WAT       0.0470
   4860 WAT         4.1590    8.3440   25.3410 O      4860 WAT       0.0589
   4861 WAT         4.1590    8.3440   25.5910 O      4861 WAT       0.0969
   4862 WAT         4.1590    8.3440   25.8410 O      4862 WAT       0.1343
   4863 WAT         4.1590    8.3440   26.0910 O      4863 WAT       0.1539
   4864 WAT         4.1590    8.3440   26.3410 O      4864 WAT       0.1464
   4865 WAT         4.1590    8.3440   26.5910 O      4865 WAT       0.1168
   4866 WAT         4.1590    8.3440   26.8410 O      4866 WAT       0.0780
   4867 WAT         4.1590    8.3440   28.0910 O      4867 WAT       0.0568
   4868 WAT         4.1590    8.3440   28.3410 O      4868 WAT       0.0673
   4869 WAT         4.1590    8.3440   28.5910 O      4869 WAT       0.0573
   4870 WAT         4.1590    8.5940   25.3410 O      4870 WAT       0.0600
   4871 WAT         4.1590    8.5940   25.5910 O      4871 WAT       0.0899
   4872 WAT         4.1590    8.5940   25.8410 O      4872 WAT       0.1171
   4873 WAT         4.1590    8.5940   26.0910 O      4873 WAT       0.1311
   4874 WAT         4.1590    8.5940   26.3410 O      4874 WAT       0.1259
   4875 WAT         4.1590    8.5940   26.5910 O      4875 WAT       0.1034
   4876 WAT         4.1590    8.5940   26.8410 O      4876 WAT       0.0716
   4877 WAT         4.1590    8.5940   28.0910 O      4877 WAT       0.0543
   4878 WAT         4.1590    8.5940   28.3410 O      4878 WAT       0.0618
   4879 WAT         4.1590    8.5940   28.5910 O      4879 WAT       0.0502
   4880 WAT         4.1590    8.8440   25.3410 O      4880 WAT       0.0598
   4881 WAT         4.1590    8.8440   25.5910 O      4881 WAT       0.0805
   4882 WAT         4.1590    8.8440   25.8410 O      4882 WAT       0.0942
   4883 WAT         4.1590    8.8440   26.0910 O      4883 WAT       0.0961
   4884 WAT         4.1590    8.8440   26.3410 O      4884 WAT       0.0866
   4885 WAT         4.1590    8.8440   26.5910 O      4885 WAT       0.0689
   4886 WAT         4.1590    8.8440   26.8410 O      4886 WAT       0.0474
   4887 WAT         4.1590    8.8440   28.3410 O      4887 WAT       0.0460
   4888 WAT         4.1590    9.0940   25.3410 O      4888 WAT       0.0597
   4889 WAT         4.1590    9.0940   25.5910 O      4889 WAT       0.0740
   4890 WAT         4.1590    9.0940   25.8410 O      4890 WAT       0.0778
   4891 WAT         4.1590    9.0940   26.0910 O      4891 WAT       0.0696
   4892 WAT         4.1590    9.0940   26.3410 O      4892 WAT       0.0545
   4893 WAT         4.1590    9.3440   25.3410 O      4893 WAT       0.0586
   4894 WAT         4.1590    9.3440   25.5910 O      4894 WAT       0.0696
   4895 WAT         4.1590    9.3440   25.8410 O      4895 WAT       0.0686
   4896 WAT         4.1590    9.3440   26.0910 O      4896 WAT       0.0556
   4897 WAT         4.1590    9.5940   25.3410 O      4897 WAT       0.0561
   4898 WAT         4.1590    9.5940   25.5910 O      4898 WAT       0.0653
   4899 WAT         4.1590    9.5940   25.8410 O      4899 WAT       0.0630
   4900 WAT         4.1590    9.5940   26.0910 O      4900 WAT       0.0492
   4901 WAT         4.1590    9.8440   25.3410 O      4901 WAT       0.0519
   4902 WAT         4.1590    9.8440   25.5910 O      4902 WAT       0.0600
   4903 WAT         4.1590    9.8440   25.8410 O      4903 WAT       0.0578
   4904 WAT         4.1590    9.8440   26.0910 O      4904 WAT       0.0451
   4905 WAT         4.1590    9.8440   28.3410 O      4905 WAT       0.0498
   4906 WAT         4.1590   10.0940   25.3410 O      4906 WAT       0.0463
   4907 WAT         4.1590   10.0940   25.5910 O      4907 WAT       0.0533
   4908 WAT         4.1590   10.0940   25.8410 O      4908 WAT       0.0515
   4909 WAT         4.1590   10.0940   27.8410 O      4909 WAT       0.0548
   4910 WAT         4.1590   10.0940   28.0910 O      4910 WAT       0.0855
   4911 WAT         4.1590   10.0940   28.3410 O      4911 WAT       0.0952
   4912 WAT         4.1590   10.0940   28.5910 O      4912 WAT       0.0765
   4913 WAT         4.1590   10.0940   28.8410 O      4913 WAT       0.0451
   4914 WAT         4.1590   10.3440   25.5910 O      4914 WAT       0.0465
   4915 WAT         4.1590   10.3440   27.5910 O      4915 WAT       0.0471
   4916 WAT         4.1590   10.3440   27.8410 O      4916 WAT       0.0978
   4917 WAT         4.1590   10.3440   28.0910 O      4917 WAT       0.1467
   4918 WAT         4.1590   10.3440   28.3410 O      4918 WAT       0.1590
   4919 WAT         4.1590   10.3440   28.5910 O      4919 WAT       0.1260
   4920 WAT         4.1590   10.3440   28.8410 O      4920 WAT       0.0744
   4921 WAT         4.1590   10.5940   27.5910 O      4921 WAT       0.0705
   4922 WAT         4.1590   10.5940   27.8410 O      4922 WAT       0.1397
   4923 WAT         4.1590   10.5940   28.0910 O      4923 WAT       0.2021
   4924 WAT         4.1590   10.5940   28.3410 O      4924 WAT       0.2132
   4925 WAT         4.1590   10.5940   28.5910 O      4925 WAT       0.1661
   4926 WAT         4.1590   10.5940   28.8410 O      4926 WAT       0.0979
   4927 WAT         4.1590   10.8440   27.5910 O      4927 WAT       0.0816
   4928 WAT         4.1590   10.8440   27.8410 O      4928 WAT       0.1535
   4929 WAT         4.1590   10.8440   28.0910 O      4929 WAT       0.2136
   4930 WAT         4.1590   10.8440   28.3410 O      4930 WAT       0.2192
   4931 WAT         4.1590   10.8440   28.5910 O      4931 WAT       0.1681
   4932 WAT         4.1590   10.8440   28.8410 O      4932 WAT       0.0988
   4933 WAT         4.1590   10.8440   29.0910 O      4933 WAT       0.0460
   4934 WAT         4.1590   11.0940   27.5910 O      4934 WAT       0.0736
   4935 WAT         4.1590   11.0940   27.8410 O      4935 WAT       0.1286
   4936 WAT         4.1590   11.0940   28.0910 O      4936 WAT       0.1701
   4937 WAT         4.1590   11.0940   28.3410 O      4937 WAT       0.1689
   4938 WAT         4.1590   11.0940   28.5910 O      4938 WAT       0.1272
   4939 WAT         4.1590   11.0940   28.8410 O      4939 WAT       0.0745
   4940 WAT         4.1590   11.3440   25.5910 O      4940 WAT       0.0479
   4941 WAT         4.1590   11.3440   27.5910 O      4941 WAT       0.0546
   4942 WAT         4.1590   11.3440   27.8410 O      4942 WAT       0.0846
   4943 WAT         4.1590   11.3440   28.0910 O      4943 WAT       0.1031
   4944 WAT         4.1590   11.3440   28.3410 O      4944 WAT       0.0972
   4945 WAT         4.1590   11.3440   28.5910 O      4945 WAT       0.0710
   4946 WAT         4.1590   11.5940   25.3410 O      4946 WAT       0.0486
   4947 WAT         4.1590   11.5940   25.5910 O      4947 WAT       0.0530
   4948 WAT         4.1590   11.5940   25.8410 O      4948 WAT       0.0512
   4949 WAT         4.1590   11.5940   27.8410 O      4949 WAT       0.0483
   4950 WAT         4.1590   11.5940   28.0910 O      4950 WAT       0.0507
   4951 WAT         4.1590   11.8440   25.3410 O      4951 WAT       0.0496
   4952 WAT         4.1590   11.8440   25.5910 O      4952 WAT       0.0556
   4953 WAT         4.1590   11.8440   25.8410 O      4953 WAT       0.0565
   4954 WAT         4.1590   11.8440   26.0910 O      4954 WAT       0.0501
   4955 WAT         4.1590   12.0940   25.3410 O      4955 WAT       0.0467
   4956 WAT         4.1590   12.0940   25.5910 O      4956 WAT       0.0534
   4957 WAT         4.1590   12.0940   25.8410 O      4957 WAT       0.0569
   4958 WAT         4.1590   12.0940   26.0910 O      4958 WAT       0.0544
   4959 WAT         4.1590   12.0940   26.3410 O      4959 WAT       0.0469
   4960 WAT         4.1590   12.3440   25.5910 O      4960 WAT       0.0464
   4961 WAT         4.1590   12.3440   25.8410 O      4961 WAT       0.0515
   4962 WAT         4.1590   12.3440   26.0910 O      4962 WAT       0.0535
   4963 WAT         4.1590   12.3440   26.3410 O      4963 WAT       0.0514
   4964 WAT         4.1590   12.3440   26.5910 O      4964 WAT       0.0468
   4965 WAT         4.1590   12.5940   26.0910 O      4965 WAT       0.0476
   4966 WAT         4.1590   12.5940   26.3410 O      4966 WAT       0.0513
   4967 WAT         4.1590   12.5940   26.5910 O      4967 WAT       0.0523
   4968 WAT         4.1590   12.5940   26.8410 O      4968 WAT       0.0511
   4969 WAT         4.1590   12.5940   27.0910 O      4969 WAT       0.0474
   4970 WAT         4.1590   12.8440   26.3410 O      4970 WAT       0.0451
   4971 WAT         4.1590   12.8440   26.5910 O      4971 WAT       0.0511
   4972 WAT         4.1590   12.8440   26.8410 O      4972 WAT       0.0545
   4973 WAT         4.1590   12.8440   27.0910 O      4973 WAT       0.0531
   4974 WAT         4.1590   13.0940   26.8410 O      4974 WAT       0.0494
   4975 WAT         4.1590   13.0940   27.0910 O      4975 WAT       0.0517
   4976 WAT         4.1590   13.0940   27.3410 O      4976 WAT       0.0458
   4977 WAT         4.1590   13.5940   22.8410 O      4977 WAT       0.0465
   4978 WAT         4.1590   13.5940   23.0910 O      4978 WAT       0.0470
   4979 WAT         4.1590   13.5940   23.3410 O      4979 WAT       0.0450
   4980 WAT         4.1590   13.8440   22.8410 O      4980 WAT       0.0478
   4981 WAT         4.1590   13.8440   23.0910 O      4981 WAT       0.0495
   4982 WAT         4.1590   13.8440   23.3410 O      4982 WAT       0.0481
   4983 WAT         4.1590   14.0940   22.8410 O      4983 WAT       0.0455
   4984 WAT         4.1590   14.0940   23.0910 O      4984 WAT       0.0479
   4985 WAT         4.1590   14.0940   23.3410 O      4985 WAT       0.0470
   4986 WAT         4.1590   14.8440   26.0910 O      4986 WAT       0.0458
   4987 WAT         4.1590   14.8440   26.3410 O      4987 WAT       0.0461
   4988 WAT         4.1590   15.0940   25.8410 O      4988 WAT       0.0520
   4989 WAT         4.1590   15.0940   26.0910 O      4989 WAT       0.0625
   4990 WAT         4.1590   15.0940   26.3410 O      4990 WAT       0.0684
   4991 WAT         4.1590   15.0940   26.5910 O      4991 WAT       0.0662
   4992 WAT         4.1590   15.0940   26.8410 O      4992 WAT       0.0545
   4993 WAT         4.1590   15.3440   25.8410 O      4993 WAT       0.0608
   4994 WAT         4.1590   15.3440   26.0910 O      4994 WAT       0.0778
   4995 WAT         4.1590   15.3440   26.3410 O      4995 WAT       0.0906
   4996 WAT         4.1590   15.3440   26.5910 O      4996 WAT       0.0922
   4997 WAT         4.1590   15.3440   26.8410 O      4997 WAT       0.0784
   4998 WAT         4.1590   15.3440   27.0910 O      4998 WAT       0.0547
   4999 WAT         4.1590   15.5940   25.5910 O      4999 WAT       0.0466
   5000 WAT         4.1590   15.5940   25.8410 O      5000 WAT       0.0650
   5001 WAT         4.1590   15.5940   26.0910 O      5001 WAT       0.0854
   5002 WAT         4.1590   15.5940   26.3410 O      5002 WAT       0.1023
   5003 WAT         4.1590   15.5940   26.5910 O      5003 WAT       0.1068
   5004 WAT         4.1590   15.5940   26.8410 O      5004 WAT       0.0928
   5005 WAT         4.1590   15.5940   27.0910 O      5005 WAT       0.0654
   5006 WAT         4.1590   15.8440   25.8410 O      5006 WAT       0.0608
   5007 WAT         4.1590   15.8440   26.0910 O      5007 WAT       0.0784
   5008 WAT         4.1590   15.8440   26.3410 O      5008 WAT       0.0934
   5009 WAT         4.1590   15.8440   26.5910 O      5009 WAT       0.0979
   5010 WAT         4.1590   15.8440   26.8410 O      5010 WAT       0.0858
   5011 WAT         4.1590   15.8440   27.0910 O      5011 WAT       0.0610
   5012 WAT         4.1590   16.0940   25.8410 O      5012 WAT       0.0473
   5013 WAT         4.1590   16.0940   26.0910 O      5013 WAT       0.0572
   5014 WAT         4.1590   16.0940   26.3410 O      5014 WAT       0.0656
   5015 WAT         4.1590   16.0940   26.5910 O      5015 WAT       0.0677
   5016 WAT         4.1590   16.0940   26.8410 O      5016 WAT       0.0592
   5017 WAT         4.1590   16.0940   28.5910 O      5017 WAT       0.0455
   5018 WAT         4.1590   16.0940   28.8410 O      5018 WAT       0.0839
   5019 WAT         4.1590   16.0940   29.0910 O      5019 WAT       0.1175
   5020 WAT         4.1590   16.0940   29.3410 O      5020 WAT       0.1191
   5021 WAT         4.1590   16.0940   29.5910 O      5021 WAT       0.0828
   5022 WAT         4.1590   16.3440   28.5910 O      5022 WAT       0.0767
   5023 WAT         4.1590   16.3440   28.8410 O      5023 WAT       0.1490
   5024 WAT         4.1590   16.3440   29.0910 O      5024 WAT       0.2189
   5025 WAT         4.1590   16.3440   29.3410 O      5025 WAT       0.2316
   5026 WAT         4.1590   16.3440   29.5910 O      5026 WAT       0.1673
   5027 WAT         4.1590   16.5940   20.3410 O      5027 WAT       0.0483
   5028 WAT         4.1590   16.5940   20.5910 O      5028 WAT       0.0515
   5029 WAT         4.1590   16.5940   20.8410 O      5029 WAT       0.0473
   5030 WAT         4.1590   16.5940   28.5910 O      5030 WAT       0.0897
   5031 WAT         4.1590   16.5940   28.8410 O      5031 WAT       0.1852
   5032 WAT         4.1590   16.5940   29.0910 O      5032 WAT       0.2876
   5033 WAT         4.1590   16.5940   29.3410 O      5033 WAT       0.3193
   5034 WAT         4.1590   16.5940   29.5910 O      5034 WAT       0.2397
   5035 WAT         4.1590   16.8440   20.0910 O      5035 WAT       0.0469
   5036 WAT         4.1590   16.8440   20.3410 O      5036 WAT       0.0587
   5037 WAT         4.1590   16.8440   20.5910 O      5037 WAT       0.0655
   5038 WAT         4.1590   16.8440   20.8410 O      5038 WAT       0.0619
   5039 WAT         4.1590   16.8440   21.0910 O      5039 WAT       0.0484
   5040 WAT         4.1590   16.8440   28.5910 O      5040 WAT       0.0734
   5041 WAT         4.1590   16.8440   28.8410 O      5041 WAT       0.1628
   5042 WAT         4.1590   16.8440   29.0910 O      5042 WAT       0.2685
   5043 WAT         4.1590   16.8440   29.3410 O      5043 WAT       0.3132
   5044 WAT         4.1590   16.8440   29.5910 O      5044 WAT       0.2443
   5045 WAT         4.1590   17.0940   20.0910 O      5045 WAT       0.0527
   5046 WAT         4.1590   17.0940   20.3410 O      5046 WAT       0.0698
   5047 WAT         4.1590   17.0940   20.5910 O      5047 WAT       0.0812
   5048 WAT         4.1590   17.0940   20.8410 O      5048 WAT       0.0790
   5049 WAT         4.1590   17.0940   21.0910 O      5049 WAT       0.0626
   5050 WAT         4.1590   17.0940   28.8410 O      5050 WAT       0.1028
   5051 WAT         4.1590   17.0940   29.0910 O      5051 WAT       0.1805
   5052 WAT         4.1590   17.0940   29.3410 O      5052 WAT       0.2209
   5053 WAT         4.1590   17.0940   29.5910 O      5053 WAT       0.1786
   5054 WAT         4.1590   17.3440   20.0910 O      5054 WAT       0.0573
   5055 WAT         4.1590   17.3440   20.3410 O      5055 WAT       0.0792
   5056 WAT         4.1590   17.3440   20.5910 O      5056 WAT       0.0949
   5057 WAT         4.1590   17.3440   20.8410 O      5057 WAT       0.0944
   5058 WAT         4.1590   17.3440   21.0910 O      5058 WAT       0.0759
   5059 WAT         4.1590   17.3440   21.3410 O      5059 WAT       0.0499
   5060 WAT         4.1590   17.3440   28.8410 O      5060 WAT       0.0469
   5061 WAT         4.1590   17.3440   29.0910 O      5061 WAT       0.0888
   5062 WAT         4.1590   17.3440   29.3410 O      5062 WAT       0.1139
   5063 WAT         4.1590   17.3440   29.5910 O      5063 WAT       0.0948
   5064 WAT         4.1590   17.5940   17.8410 O      5064 WAT       0.0481
   5065 WAT         4.1590   17.5940   18.0910 O      5065 WAT       0.0497
   5066 WAT         4.1590   17.5940   20.0910 O      5066 WAT       0.0587
   5067 WAT         4.1590   17.5940   20.3410 O      5067 WAT       0.0829
   5068 WAT         4.1590   17.5940   20.5910 O      5068 WAT       0.1010
   5069 WAT         4.1590   17.5940   20.8410 O      5069 WAT       0.1016
   5070 WAT         4.1590   17.5940   21.0910 O      5070 WAT       0.0829
   5071 WAT         4.1590   17.5940   21.3410 O      5071 WAT       0.0555
   5072 WAT         4.1590   17.8440   17.5910 O      5072 WAT       0.0469
   5073 WAT         4.1590   17.8440   17.8410 O      5073 WAT       0.0565
   5074 WAT         4.1590   17.8440   18.0910 O      5074 WAT       0.0584
   5075 WAT         4.1590   17.8440   18.3410 O      5075 WAT       0.0520
   5076 WAT         4.1590   17.8440   20.0910 O      5076 WAT       0.0563
   5077 WAT         4.1590   17.8440   20.3410 O      5077 WAT       0.0793
   5078 WAT         4.1590   17.8440   20.5910 O      5078 WAT       0.0965
   5079 WAT         4.1590   17.8440   20.8410 O      5079 WAT       0.0973
   5080 WAT         4.1590   17.8440   21.0910 O      5080 WAT       0.0799
   5081 WAT         4.1590   17.8440   21.3410 O      5081 WAT       0.0541
   5082 WAT         4.1590   18.0940   17.5910 O      5082 WAT       0.0531
   5083 WAT         4.1590   18.0940   17.8410 O      5083 WAT       0.0642
   5084 WAT         4.1590   18.0940   18.0910 O      5084 WAT       0.0663
   5085 WAT         4.1590   18.0940   18.3410 O      5085 WAT       0.0590
   5086 WAT         4.1590   18.0940   18.5910 O      5086 WAT       0.0469
   5087 WAT         4.1590   18.0940   20.0910 O      5087 WAT       0.0512
   5088 WAT         4.1590   18.0940   20.3410 O      5088 WAT       0.0701
   5089 WAT         4.1590   18.0940   20.5910 O      5089 WAT       0.0838
   5090 WAT         4.1590   18.0940   20.8410 O      5090 WAT       0.0834
   5091 WAT         4.1590   18.0940   21.0910 O      5091 WAT       0.0678
   5092 WAT         4.1590   18.0940   21.3410 O      5092 WAT       0.0453
   5093 WAT         4.1590   18.3440   17.5910 O      5093 WAT       0.0583
   5094 WAT         4.1590   18.3440   17.8410 O      5094 WAT       0.0695
   5095 WAT         4.1590   18.3440   18.0910 O      5095 WAT       0.0710
   5096 WAT         4.1590   18.3440   18.3410 O      5096 WAT       0.0629
   5097 WAT         4.1590   18.3440   18.5910 O      5097 WAT       0.0506
   5098 WAT         4.1590   18.3440   20.3410 O      5098 WAT       0.0581
   5099 WAT         4.1590   18.3440   20.5910 O      5099 WAT       0.0672
   5100 WAT         4.1590   18.3440   20.8410 O      5100 WAT       0.0650
   5101 WAT         4.1590   18.3440   21.0910 O      5101 WAT       0.0514
   5102 WAT         4.1590   18.5940   17.5910 O      5102 WAT       0.0596
   5103 WAT         4.1590   18.5940   17.8410 O      5103 WAT       0.0690
   5104 WAT         4.1590   18.5940   18.0910 O      5104 WAT       0.0686
   5105 WAT         4.1590   18.5940   18.3410 O      5105 WAT       0.0597
   5106 WAT         4.1590   18.5940   18.5910 O      5106 WAT       0.0478
   5107 WAT         4.1590   18.5940   20.5910 O      5107 WAT       0.0494
   5108 WAT         4.1590   18.5940   20.8410 O      5108 WAT       0.0462
   5109 WAT         4.1590   18.8440   17.5910 O      5109 WAT       0.0547
   5110 WAT         4.1590   18.8440   17.8410 O      5110 WAT       0.0600
   5111 WAT         4.1590   18.8440   18.0910 O      5111 WAT       0.0567
   5112 WAT         4.1590   18.8440   18.3410 O      5112 WAT       0.0473
   5113 WAT         4.1590   18.8440   22.8410 O      5113 WAT       0.0518
   5114 WAT         4.1590   18.8440   23.0910 O      5114 WAT       0.0497
   5115 WAT         4.1590   19.0940   22.5910 O      5115 WAT       0.0540
   5116 WAT         4.1590   19.0940   22.8410 O      5116 WAT       0.0663
   5117 WAT         4.1590   19.0940   23.0910 O      5117 WAT       0.0647
   5118 WAT         4.1590   19.0940   23.3410 O      5118 WAT       0.0483
   5119 WAT         4.1590   19.3440   22.3410 O      5119 WAT       0.0456
   5120 WAT         4.1590   19.3440   22.5910 O      5120 WAT       0.0669
   5121 WAT         4.1590   19.3440   22.8410 O      5121 WAT       0.0822
   5122 WAT         4.1590   19.3440   23.0910 O      5122 WAT       0.0811
   5123 WAT         4.1590   19.3440   23.3410 O      5123 WAT       0.0616
   5124 WAT         4.1590   19.5940   22.3410 O      5124 WAT       0.0563
   5125 WAT         4.1590   19.5940   22.5910 O      5125 WAT       0.0832
   5126 WAT         4.1590   19.5940   22.8410 O      5126 WAT       0.1021
   5127 WAT         4.1590   19.5940   23.0910 O      5127 WAT       0.1006
   5128 WAT         4.1590   19.5940   23.3410 O      5128 WAT       0.0764
   5129 WAT         4.1590   19.8440   22.3410 O      5129 WAT       0.0651
   5130 WAT         4.1590   19.8440   22.5910 O      5130 WAT       0.0992
   5131 WAT         4.1590   19.8440   22.8410 O      5131 WAT       0.1228
   5132 WAT         4.1590   19.8440   23.0910 O      5132 WAT       0.1204
   5133 WAT         4.1590   19.8440   23.3410 O      5133 WAT       0.0905
   5134 WAT         4.1590   19.8440   23.5910 O      5134 WAT       0.0505
   5135 WAT         4.1590   20.0940   22.3410 O      5135 WAT       0.0650
   5136 WAT         4.1590   20.0940   22.5910 O      5136 WAT       0.1037
   5137 WAT         4.1590   20.0940   22.8410 O      5137 WAT       0.1313
   5138 WAT         4.1590   20.0940   23.0910 O      5138 WAT       0.1293
   5139 WAT         4.1590   20.0940   23.3410 O      5139 WAT       0.0966
   5140 WAT         4.1590   20.0940   23.5910 O      5140 WAT       0.0532
   5141 WAT         4.1590   20.3440   22.3410 O      5141 WAT       0.0514
   5142 WAT         4.1590   20.3440   22.5910 O      5142 WAT       0.0866
   5143 WAT         4.1590   20.3440   22.8410 O      5143 WAT       0.1134
   5144 WAT         4.1590   20.3440   23.0910 O      5144 WAT       0.1137
   5145 WAT         4.1590   20.3440   23.3410 O      5145 WAT       0.0854
   5146 WAT         4.1590   20.3440   23.5910 O      5146 WAT       0.0469
   5147 WAT         4.1590   20.5940   11.3410 O      5147 WAT       0.0505
   5148 WAT         4.1590   20.5940   11.5910 O      5148 WAT       0.0693
   5149 WAT         4.1590   20.5940   11.8410 O      5149 WAT       0.0717
   5150 WAT         4.1590   20.5940   12.0910 O      5150 WAT       0.0548
   5151 WAT         4.1590   20.5940   22.5910 O      5151 WAT       0.0538
   5152 WAT         4.1590   20.5940   22.8410 O      5152 WAT       0.0734
   5153 WAT         4.1590   20.5940   23.0910 O      5153 WAT       0.0756
   5154 WAT         4.1590   20.5940   23.3410 O      5154 WAT       0.0579
   5155 WAT         4.1590   20.8440   11.3410 O      5155 WAT       0.0817
   5156 WAT         4.1590   20.8440   11.5910 O      5156 WAT       0.1191
   5157 WAT         4.1590   20.8440   11.8410 O      5157 WAT       0.1296
   5158 WAT         4.1590   20.8440   12.0910 O      5158 WAT       0.1031
   5159 WAT         4.1590   20.8440   12.3410 O      5159 WAT       0.0603
   5160 WAT         4.1590   21.0940   11.0910 O      5160 WAT       0.0525
   5161 WAT         4.1590   21.0940   11.3410 O      5161 WAT       0.0984
   5162 WAT         4.1590   21.0940   11.5910 O      5162 WAT       0.1489
   5163 WAT         4.1590   21.0940   11.8410 O      5163 WAT       0.1681
   5164 WAT         4.1590   21.0940   12.0910 O      5164 WAT       0.1382
   5165 WAT         4.1590   21.0940   12.3410 O      5165 WAT       0.0832
   5166 WAT         4.1590   21.3440   11.0910 O      5166 WAT       0.0457
   5167 WAT         4.1590   21.3440   11.3410 O      5167 WAT       0.0853
   5168 WAT         4.1590   21.3440   11.5910 O      5168 WAT       0.1317
   5169 WAT         4.1590   21.3440   11.8410 O      5169 WAT       0.1525
   5170 WAT         4.1590   21.3440   12.0910 O      5170 WAT       0.1289
   5171 WAT         4.1590   21.3440   12.3410 O      5171 WAT       0.0796
   5172 WAT         4.1590   21.5940   11.3410 O      5172 WAT       0.0517
   5173 WAT         4.1590   21.5940   11.5910 O      5173 WAT       0.0804
   5174 WAT         4.1590   21.5940   11.8410 O      5174 WAT       0.0948
   5175 WAT         4.1590   21.5940   12.0910 O      5175 WAT       0.0819
   5176 WAT         4.1590   21.5940   12.3410 O      5176 WAT       0.0519
   5177 WAT         4.1590   22.0940    8.3410 O      5177 WAT       0.0481
   5178 WAT         4.1590   22.0940    8.5910 O      5178 WAT       0.0491
   5179 WAT         4.1590   22.0940    8.8410 O      5179 WAT       0.0451
   5180 WAT         4.1590   22.3440    7.8410 O      5180 WAT       0.0489
   5181 WAT         4.1590   22.3440    8.0910 O      5181 WAT       0.0643
   5182 WAT         4.1590   22.3440    8.3410 O      5182 WAT       0.0773
   5183 WAT         4.1590   22.3440    8.5910 O      5183 WAT       0.0834
   5184 WAT         4.1590   22.3440    8.8410 O      5184 WAT       0.0780
   5185 WAT         4.1590   22.3440    9.0910 O      5185 WAT       0.0606
   5186 WAT         4.1590   22.5940    7.8410 O      5186 WAT       0.0458
   5187 WAT         4.1590   22.5940    8.0910 O      5187 WAT       0.0655
   5188 WAT         4.1590   22.5940    8.3410 O      5188 WAT       0.0857
   5189 WAT         4.1590   22.5940    8.5910 O      5189 WAT       0.0992
   5190 WAT         4.1590   22.5940    8.8410 O      5190 WAT       0.0966
   5191 WAT         4.1590   22.5940    9.0910 O      5191 WAT       0.0753
   5192 WAT         4.1590   22.5940    9.3410 O      5192 WAT       0.0452
   5193 WAT         4.1590   22.8440    8.3410 O      5193 WAT       0.0636
   5194 WAT         4.1590   22.8440    8.5910 O      5194 WAT       0.0794
   5195 WAT         4.1590   22.8440    8.8410 O      5195 WAT       0.0810
   5196 WAT         4.1590   22.8440    9.0910 O      5196 WAT       0.0643
   5197 WAT         4.1590   23.0940    5.3410 O      5197 WAT       0.0459
   5198 WAT         4.1590   23.0940    5.5910 O      5198 WAT       0.0483
   5199 WAT         4.1590   23.3440    5.0910 O      5199 WAT       0.0609
   5200 WAT         4.1590   23.3440    5.3410 O      5200 WAT       0.0745
   5201 WAT         4.1590   23.3440    5.5910 O      5201 WAT       0.0672
   5202 WAT         4.1590   23.5940    4.8410 O      5202 WAT       0.0644
   5203 WAT         4.1590   23.5940    5.0910 O      5203 WAT       0.0939
   5204 WAT         4.1590   23.5940    5.3410 O      5204 WAT       0.0993
   5205 WAT         4.1590   23.5940    5.5910 O      5205 WAT       0.0766
   5206 WAT         4.1590   23.8440    4.5910 O      5206 WAT       0.0518
   5207 WAT         4.1590   23.8440    4.8410 O      5207 WAT       0.0925
   5208 WAT         4.1590   23.8440    5.0910 O      5208 WAT       0.1189
   5209 WAT         4.1590   23.8440    5.3410 O      5209 WAT       0.1094
   5210 WAT         4.1590   23.8440    5.5910 O      5210 WAT       0.0724
   5211 WAT         4.1590   24.0940    4.5910 O      5211 WAT       0.0687
   5212 WAT         4.1590   24.0940    4.8410 O      5212 WAT       0.1097
   5213 WAT         4.1590   24.0940    5.0910 O      5213 WAT       0.1245
   5214 WAT         4.1590   24.0940    5.3410 O      5214 WAT       0.1001
   5215 WAT         4.1590   24.0940    5.5910 O      5215 WAT       0.0569
   5216 WAT         4.1590   24.3440    4.5910 O      5216 WAT       0.0758
   5217 WAT         4.1590   24.3440    4.8410 O      5217 WAT       0.1080
   5218 WAT         4.1590   24.3440    5.0910 O      5218 WAT       0.1087
   5219 WAT         4.1590   24.3440    5.3410 O      5219 WAT       0.0765
   5220 WAT         4.1590   24.5940    4.5910 O      5220 WAT       0.0694
   5221 WAT         4.1590   24.5940    4.8410 O      5221 WAT       0.0883
   5222 WAT         4.1590   24.5940    5.0910 O      5222 WAT       0.0790
   5223 WAT         4.1590   24.5940    5.3410 O      5223 WAT       0.0489
   5224 WAT         4.1590   24.8440    4.5910 O      5224 WAT       0.0523
   5225 WAT         4.1590   24.8440    4.8410 O      5225 WAT       0.0589
   5226 WAT         4.1590   24.8440    5.0910 O      5226 WAT       0.0470
   5227 WAT         4.1590   25.3440    3.0910 O      5227 WAT       0.0453
   5228 WAT         4.1590   25.5940    3.0910 O      5228 WAT       0.0495
   5229 WAT         4.1590   25.5940    3.3410 O      5229 WAT       0.0486
   5230 WAT         4.1590   25.8440    2.8410 O      5230 WAT       0.0453
   5231 WAT         4.1590   25.8440    3.0910 O      5231 WAT       0.0517
   5232 WAT         4.1590   25.8440    3.3410 O      5232 WAT       0.0497
   5233 WAT         4.1590   26.0940    2.8410 O      5233 WAT       0.0461
   5234 WAT         4.1590   26.0940    3.0910 O      5234 WAT       0.0508
   5235 WAT         4.1590   26.0940    3.3410 O      5235 WAT       0.0467
   5236 WAT         4.1590   26.3440    2.8410 O      5236 WAT       0.0450
   5237 WAT         4.1590   26.3440    3.0910 O      5237 WAT       0.0468
   5238 WAT         4.1590   27.3440    2.5910 O      5238 WAT       0.0461
   5239 WAT         4.1590   27.3440    2.8410 O      5239 WAT       0.0458
   5240 WAT         4.1590   27.5940    2.5910 O      5240 WAT       0.0546
   5241 WAT         4.1590   27.5940    2.8410 O      5241 WAT       0.0546
   5242 WAT         4.1590   27.8440    2.5910 O      5242 WAT       0.0664
   5243 WAT         4.1590   27.8440    2.8410 O      5243 WAT       0.0667
   5244 WAT         4.1590   27.8440    3.0910 O      5244 WAT       0.0505
   5245 WAT         4.1590   28.0940    2.5910 O      5245 WAT       0.0788
   5246 WAT         4.1590   28.0940    2.8410 O      5246 WAT       0.0785
   5247 WAT         4.1590   28.0940    3.0910 O      5247 WAT       0.0590
   5248 WAT         4.1590   28.3440    2.5910 O      5248 WAT       0.0884
   5249 WAT         4.1590   28.3440    2.8410 O      5249 WAT       0.0859
   5250 WAT         4.1590   28.3440    3.0910 O      5250 WAT       0.0634
   5251 WAT         4.1590   28.5940    2.5910 O      5251 WAT       0.0912
   5252 WAT         4.1590   28.5940    2.8410 O      5252 WAT       0.0856
   5253 WAT         4.1590   28.5940    3.0910 O      5253 WAT       0.0616
   5254 WAT         4.1590   28.8440    2.5910 O      5254 WAT       0.0855
   5255 WAT         4.1590   28.8440    2.8410 O      5255 WAT       0.0772
   5256 WAT         4.1590   28.8440    3.0910 O      5256 WAT       0.0542
   5257 WAT         4.1590   29.0940    2.5910 O      5257 WAT       0.0739
   5258 WAT         4.1590   29.0940    2.8410 O      5258 WAT       0.0646
   5259 WAT         4.1590   29.3440    2.5910 O      5259 WAT       0.0614
   5260 WAT         4.1590   29.3440    2.8410 O      5260 WAT       0.0527
   5261 WAT         4.1590   29.5940    2.5910 O      5261 WAT       0.0502
   5262 WAT         4.4090    8.3440   25.0910 O      5262 WAT       0.0472
   5263 WAT         4.4090    8.3440   25.3410 O      5263 WAT       0.0820
   5264 WAT         4.4090    8.3440   25.5910 O      5264 WAT       0.1225
   5265 WAT         4.4090    8.3440   25.8410 O      5265 WAT       0.1508
   5266 WAT         4.4090    8.3440   26.0910 O      5266 WAT       0.1505
   5267 WAT         4.4090    8.3440   26.3410 O      5267 WAT       0.1225
   5268 WAT         4.4090    8.3440   26.5910 O      5268 WAT       0.0831
   5269 WAT         4.4090    8.3440   26.8410 O      5269 WAT       0.0474
   5270 WAT         4.4090    8.5940   25.0910 O      5270 WAT       0.0511
   5271 WAT         4.4090    8.5940   25.3410 O      5271 WAT       0.0795
   5272 WAT         4.4090    8.5940   25.5910 O      5272 WAT       0.1080
   5273 WAT         4.4090    8.5940   25.8410 O      5273 WAT       0.1248
   5274 WAT         4.4090    8.5940   26.0910 O      5274 WAT       0.1216
   5275 WAT         4.4090    8.5940   26.3410 O      5275 WAT       0.1003
   5276 WAT         4.4090    8.5940   26.5910 O      5276 WAT       0.0706
   5277 WAT         4.4090    8.8440   25.0910 O      5277 WAT       0.0534
   5278 WAT         4.4090    8.8440   25.3410 O      5278 WAT       0.0747
   5279 WAT         4.4090    8.8440   25.5910 O      5279 WAT       0.0907
   5280 WAT         4.4090    8.8440   25.8410 O      5280 WAT       0.0943
   5281 WAT         4.4090    8.8440   26.0910 O      5281 WAT       0.0842
   5282 WAT         4.4090    8.8440   26.3410 O      5282 WAT       0.0657
   5283 WAT         4.4090    8.8440   26.5910 O      5283 WAT       0.0451
   5284 WAT         4.4090    9.0940   25.0910 O      5284 WAT       0.0542
   5285 WAT         4.4090    9.0940   25.3410 O      5285 WAT       0.0703
   5286 WAT         4.4090    9.0940   25.5910 O      5286 WAT       0.0781
   5287 WAT         4.4090    9.0940   25.8410 O      5287 WAT       0.0728
   5288 WAT         4.4090    9.0940   26.0910 O      5288 WAT       0.0573
   5289 WAT         4.4090    9.3440   25.0910 O      5289 WAT       0.0530
   5290 WAT         4.4090    9.3440   25.3410 O      5290 WAT       0.0657
   5291 WAT         4.4090    9.3440   25.5910 O      5291 WAT       0.0694
   5292 WAT         4.4090    9.3440   25.8410 O      5292 WAT       0.0604
   5293 WAT         4.4090    9.5940   25.0910 O      5293 WAT       0.0504
   5294 WAT         4.4090    9.5940   25.3410 O      5294 WAT       0.0611
   5295 WAT         4.4090    9.5940   25.5910 O      5295 WAT       0.0629
   5296 WAT         4.4090    9.5940   25.8410 O      5296 WAT       0.0534
   5297 WAT         4.4090    9.8440   25.0910 O      5297 WAT       0.0466
   5298 WAT         4.4090    9.8440   25.3410 O      5298 WAT       0.0560
   5299 WAT         4.4090    9.8440   25.5910 O      5299 WAT       0.0574
   5300 WAT         4.4090    9.8440   25.8410 O      5300 WAT       0.0487
   5301 WAT         4.4090   10.0940   25.3410 O      5301 WAT       0.0504
   5302 WAT         4.4090   10.0940   25.5910 O      5302 WAT       0.0518
   5303 WAT         4.4090   10.3440   25.3410 O      5303 WAT       0.0453
   5304 WAT         4.4090   10.3440   25.5910 O      5304 WAT       0.0470
   5305 WAT         4.4090   10.3440   27.8410 O      5305 WAT       0.0551
   5306 WAT         4.4090   10.3440   28.0910 O      5306 WAT       0.0770
   5307 WAT         4.4090   10.3440   28.3410 O      5307 WAT       0.0766
   5308 WAT         4.4090   10.3440   28.5910 O      5308 WAT       0.0546
   5309 WAT         4.4090   10.5940   27.8410 O      5309 WAT       0.0837
   5310 WAT         4.4090   10.5940   28.0910 O      5310 WAT       0.1121
   5311 WAT         4.4090   10.5940   28.3410 O      5311 WAT       0.1079
   5312 WAT         4.4090   10.5940   28.5910 O      5312 WAT       0.0753
   5313 WAT         4.4090   10.8440   25.5910 O      5313 WAT       0.0466
   5314 WAT         4.4090   10.8440   27.5910 O      5314 WAT       0.0548
   5315 WAT         4.4090   10.8440   27.8410 O      5315 WAT       0.0962
   5316 WAT         4.4090   10.8440   28.0910 O      5316 WAT       0.1232
   5317 WAT         4.4090   10.8440   28.3410 O      5317 WAT       0.1148
   5318 WAT         4.4090   10.8440   28.5910 O      5318 WAT       0.0783
   5319 WAT         4.4090   11.0940   25.3410 O      5319 WAT       0.0505
   5320 WAT         4.4090   11.0940   25.5910 O      5320 WAT       0.0531
   5321 WAT         4.4090   11.0940   25.8410 O      5321 WAT       0.0471
   5322 WAT         4.4090   11.0940   27.5910 O      5322 WAT       0.0511
   5323 WAT         4.4090   11.0940   27.8410 O      5323 WAT       0.0831
   5324 WAT         4.4090   11.0940   28.0910 O      5324 WAT       0.1007
   5325 WAT         4.4090   11.0940   28.3410 O      5325 WAT       0.0901
   5326 WAT         4.4090   11.0940   28.5910 O      5326 WAT       0.0599
   5327 WAT         4.4090   11.3440   25.0910 O      5327 WAT       0.0492
   5328 WAT         4.4090   11.3440   25.3410 O      5328 WAT       0.0590
   5329 WAT         4.4090   11.3440   25.5910 O      5329 WAT       0.0633
   5330 WAT         4.4090   11.3440   25.8410 O      5330 WAT       0.0579
   5331 WAT         4.4090   11.3440   27.8410 O      5331 WAT       0.0554
   5332 WAT         4.4090   11.3440   28.0910 O      5332 WAT       0.0616
   5333 WAT         4.4090   11.3440   28.3410 O      5333 WAT       0.0519
   5334 WAT         4.4090   11.5940   25.0910 O      5334 WAT       0.0548
   5335 WAT         4.4090   11.5940   25.3410 O      5335 WAT       0.0667
   5336 WAT         4.4090   11.5940   25.5910 O      5336 WAT       0.0741
   5337 WAT         4.4090   11.5940   25.8410 O      5337 WAT       0.0713
   5338 WAT         4.4090   11.5940   26.0910 O      5338 WAT       0.0576
   5339 WAT         4.4090   11.8440   24.8410 O      5339 WAT       0.0458
   5340 WAT         4.4090   11.8440   25.0910 O      5340 WAT       0.0568
   5341 WAT         4.4090   11.8440   25.3410 O      5341 WAT       0.0699
   5342 WAT         4.4090   11.8440   25.5910 O      5342 WAT       0.0804
   5343 WAT         4.4090   11.8440   25.8410 O      5343 WAT       0.0817
   5344 WAT         4.4090   11.8440   26.0910 O      5344 WAT       0.0708
   5345 WAT         4.4090   11.8440   26.3410 O      5345 WAT       0.0524
   5346 WAT         4.4090   12.0940   24.8410 O      5346 WAT       0.0451
   5347 WAT         4.4090   12.0940   25.0910 O      5347 WAT       0.0544
   5348 WAT         4.4090   12.0940   25.3410 O      5348 WAT       0.0664
   5349 WAT         4.4090   12.0940   25.5910 O      5349 WAT       0.0783
   5350 WAT         4.4090   12.0940   25.8410 O      5350 WAT       0.0836
   5351 WAT         4.4090   12.0940   26.0910 O      5351 WAT       0.0777
   5352 WAT         4.4090   12.0940   26.3410 O      5352 WAT       0.0629
   5353 WAT         4.4090   12.0940   26.5910 O      5353 WAT       0.0460
   5354 WAT         4.4090   12.3440   25.0910 O      5354 WAT       0.0485
   5355 WAT         4.4090   12.3440   25.3410 O      5355 WAT       0.0576
   5356 WAT         4.4090   12.3440   25.5910 O      5356 WAT       0.0681
   5357 WAT         4.4090   12.3440   25.8410 O      5357 WAT       0.0758
   5358 WAT         4.4090   12.3440   26.0910 O      5358 WAT       0.0758
   5359 WAT         4.4090   12.3440   26.3410 O      5359 WAT       0.0674
   5360 WAT         4.4090   12.3440   26.5910 O      5360 WAT       0.0546
   5361 WAT         4.4090   12.5940   25.3410 O      5361 WAT       0.0468
   5362 WAT         4.4090   12.5940   25.5910 O      5362 WAT       0.0541
   5363 WAT         4.4090   12.5940   25.8410 O      5363 WAT       0.0615
   5364 WAT         4.4090   12.5940   26.0910 O      5364 WAT       0.0657
   5365 WAT         4.4090   12.5940   26.3410 O      5365 WAT       0.0642
   5366 WAT         4.4090   12.5940   26.5910 O      5366 WAT       0.0576
   5367 WAT         4.4090   12.5940   26.8410 O      5367 WAT       0.0485
   5368 WAT         4.4090   12.8440   25.8410 O      5368 WAT       0.0450
   5369 WAT         4.4090   12.8440   26.0910 O      5369 WAT       0.0503
   5370 WAT         4.4090   12.8440   26.3410 O      5370 WAT       0.0532
   5371 WAT         4.4090   12.8440   26.5910 O      5371 WAT       0.0525
   5372 WAT         4.4090   12.8440   26.8410 O      5372 WAT       0.0481
   5373 WAT         4.4090   14.5940   25.5910 O      5373 WAT       0.0468
   5374 WAT         4.4090   14.5940   25.8410 O      5374 WAT       0.0559
   5375 WAT         4.4090   14.5940   26.0910 O      5375 WAT       0.0587
   5376 WAT         4.4090   14.5940   26.3410 O      5376 WAT       0.0548
   5377 WAT         4.4090   14.5940   26.5910 O      5377 WAT       0.0452
   5378 WAT         4.4090   14.8440   25.5910 O      5378 WAT       0.0573
   5379 WAT         4.4090   14.8440   25.8410 O      5379 WAT       0.0730
   5380 WAT         4.4090   14.8440   26.0910 O      5380 WAT       0.0833
   5381 WAT         4.4090   14.8440   26.3410 O      5381 WAT       0.0856
   5382 WAT         4.4090   14.8440   26.5910 O      5382 WAT       0.0768
   5383 WAT         4.4090   14.8440   26.8410 O      5383 WAT       0.0575
   5384 WAT         4.4090   15.0940   25.5910 O      5384 WAT       0.0641
   5385 WAT         4.4090   15.0940   25.8410 O      5385 WAT       0.0871
   5386 WAT         4.4090   15.0940   26.0910 O      5386 WAT       0.1085
   5387 WAT         4.4090   15.0940   26.3410 O      5387 WAT       0.1222
   5388 WAT         4.4090   15.0940   26.5910 O      5388 WAT       0.1192
   5389 WAT         4.4090   15.0940   26.8410 O      5389 WAT       0.0952
   5390 WAT         4.4090   15.0940   27.0910 O      5390 WAT       0.0599
   5391 WAT         4.4090   15.3440   25.5910 O      5391 WAT       0.0678
   5392 WAT         4.4090   15.3440   25.8410 O      5392 WAT       0.0970
   5393 WAT         4.4090   15.3440   26.0910 O      5393 WAT       0.1294
   5394 WAT         4.4090   15.3440   26.3410 O      5394 WAT       0.1563
   5395 WAT         4.4090   15.3440   26.5910 O      5395 WAT       0.1619
   5396 WAT         4.4090   15.3440   26.8410 O      5396 WAT       0.1360
   5397 WAT         4.4090   15.3440   27.0910 O      5397 WAT       0.0892
   5398 WAT         4.4090   15.3440   27.3410 O      5398 WAT       0.0454
   5399 WAT         4.4090   15.5940   25.5910 O      5399 WAT       0.0678
   5400 WAT         4.4090   15.5940   25.8410 O      5400 WAT       0.0989
   5401 WAT         4.4090   15.5940   26.0910 O      5401 WAT       0.1363
   5402 WAT         4.4090   15.5940   26.3410 O      5402 WAT       0.1705
   5403 WAT         4.4090   15.5940   26.5910 O      5403 WAT       0.1827
   5404 WAT         4.4090   15.5940   26.8410 O      5404 WAT       0.1586
   5405 WAT         4.4090   15.5940   27.0910 O      5405 WAT       0.1075
   5406 WAT         4.4090   15.5940   27.3410 O      5406 WAT       0.0563
   5407 WAT         4.4090   15.8440   25.5910 O      5407 WAT       0.0616
   5408 WAT         4.4090   15.8440   25.8410 O      5408 WAT       0.0877
   5409 WAT         4.4090   15.8440   26.0910 O      5409 WAT       0.1196
   5410 WAT         4.4090   15.8440   26.3410 O      5410 WAT       0.1498
   5411 WAT         4.4090   15.8440   26.5910 O      5411 WAT       0.1622
   5412 WAT         4.4090   15.8440   26.8410 O      5412 WAT       0.1435
   5413 WAT         4.4090   15.8440   27.0910 O      5413 WAT       0.0998
   5414 WAT         4.4090   15.8440   27.3410 O      5414 WAT       0.0538
   5415 WAT         4.4090   15.8440   28.8410 O      5415 WAT       0.0476
   5416 WAT         4.4090   15.8440   29.0910 O      5416 WAT       0.0627
   5417 WAT         4.4090   15.8440   29.3410 O      5417 WAT       0.0593
   5418 WAT         4.4090   16.0940   25.5910 O      5418 WAT       0.0483
   5419 WAT         4.4090   16.0940   25.8410 O      5419 WAT       0.0640
   5420 WAT         4.4090   16.0940   26.0910 O      5420 WAT       0.0828
   5421 WAT         4.4090   16.0940   26.3410 O      5421 WAT       0.1007
   5422 WAT         4.4090   16.0940   26.5910 O      5422 WAT       0.1082
   5423 WAT         4.4090   16.0940   26.8410 O      5423 WAT       0.0963
   5424 WAT         4.4090   16.0940   27.0910 O      5424 WAT       0.0680
   5425 WAT         4.4090   16.0940   28.5910 O      5425 WAT       0.0665
   5426 WAT         4.4090   16.0940   28.8410 O      5426 WAT       0.1226
   5427 WAT         4.4090   16.0940   29.0910 O      5427 WAT       0.1694
   5428 WAT         4.4090   16.0940   29.3410 O      5428 WAT       0.1678
   5429 WAT         4.4090   16.0940   29.5910 O      5429 WAT       0.1139
   5430 WAT         4.4090   16.3440   26.3410 O      5430 WAT       0.0494
   5431 WAT         4.4090   16.3440   26.5910 O      5431 WAT       0.0517
   5432 WAT         4.4090   16.3440   26.8410 O      5432 WAT       0.0457
   5433 WAT         4.4090   16.3440   28.5910 O      5433 WAT       0.1106
   5434 WAT         4.4090   16.3440   28.8410 O      5434 WAT       0.2165
   5435 WAT         4.4090   16.3440   29.0910 O      5435 WAT       0.3166
   5436 WAT         4.4090   16.3440   29.3410 O      5436 WAT       0.3304
   5437 WAT         4.4090   16.3440   29.5910 O      5437 WAT       0.2346
   5438 WAT         4.4090   16.5940   20.3410 O      5438 WAT       0.0475
   5439 WAT         4.4090   16.5940   20.5910 O      5439 WAT       0.0497
   5440 WAT         4.4090   16.5940   28.3410 O      5440 WAT       0.0467
   5441 WAT         4.4090   16.5940   28.5910 O      5441 WAT       0.1263
   5442 WAT         4.4090   16.5940   28.8410 O      5442 WAT       0.2646
   5443 WAT         4.4090   16.5940   29.0910 O      5443 WAT       0.4125
   5444 WAT         4.4090   16.5940   29.3410 O      5444 WAT       0.4552
   5445 WAT         4.4090   16.5940   29.5910 O      5445 WAT       0.3385
   5446 WAT         4.4090   16.8440   20.3410 O      5446 WAT       0.0534
   5447 WAT         4.4090   16.8440   20.5910 O      5447 WAT       0.0581
   5448 WAT         4.4090   16.8440   20.8410 O      5448 WAT       0.0526
   5449 WAT         4.4090   16.8440   28.5910 O      5449 WAT       0.1000
   5450 WAT         4.4090   16.8440   28.8410 O      5450 WAT       0.2261
   5451 WAT         4.4090   16.8440   29.0910 O      5451 WAT       0.3772
   5452 WAT         4.4090   16.8440   29.3410 O      5452 WAT       0.4408
   5453 WAT         4.4090   16.8440   29.5910 O      5453 WAT       0.3430
   5454 WAT         4.4090   17.0940   17.8410 O      5454 WAT       0.0478
   5455 WAT         4.4090   17.0940   18.0910 O      5455 WAT       0.0507
   5456 WAT         4.4090   17.0940   18.3410 O      5456 WAT       0.0456
   5457 WAT         4.4090   17.0940   20.0910 O      5457 WAT       0.0454
   5458 WAT         4.4090   17.0940   20.3410 O      5458 WAT       0.0588
   5459 WAT         4.4090   17.0940   20.5910 O      5459 WAT       0.0664
   5460 WAT         4.4090   17.0940   20.8410 O      5460 WAT       0.0619
   5461 WAT         4.4090   17.0940   21.0910 O      5461 WAT       0.0463
   5462 WAT         4.4090   17.0940   28.5910 O      5462 WAT       0.0552
   5463 WAT         4.4090   17.0940   28.8410 O      5463 WAT       0.1372
   5464 WAT         4.4090   17.0940   29.0910 O      5464 WAT       0.2454
   5465 WAT         4.4090   17.0940   29.3410 O      5465 WAT       0.3032
   5466 WAT         4.4090   17.0940   29.5910 O      5466 WAT       0.2461
   5467 WAT         4.4090   17.3440   17.5910 O      5467 WAT       0.0485
   5468 WAT         4.4090   17.3440   17.8410 O      5468 WAT       0.0621
   5469 WAT         4.4090   17.3440   18.0910 O      5469 WAT       0.0661
   5470 WAT         4.4090   17.3440   18.3410 O      5470 WAT       0.0587
   5471 WAT         4.4090   17.3440   20.0910 O      5471 WAT       0.0462
   5472 WAT         4.4090   17.3440   20.3410 O      5472 WAT       0.0624
   5473 WAT         4.4090   17.3440   20.5910 O      5473 WAT       0.0729
   5474 WAT         4.4090   17.3440   20.8410 O      5474 WAT       0.0696
   5475 WAT         4.4090   17.3440   21.0910 O      5475 WAT       0.0532
   5476 WAT         4.4090   17.3440   28.8410 O      5476 WAT       0.0599
   5477 WAT         4.4090   17.3440   29.0910 O      5477 WAT       0.1157
   5478 WAT         4.4090   17.3440   29.3410 O      5478 WAT       0.1507
   5479 WAT         4.4090   17.3440   29.5910 O      5479 WAT       0.1269
   5480 WAT         4.4090   17.5940   17.5910 O      5480 WAT       0.0573
   5481 WAT         4.4090   17.5940   17.8410 O      5481 WAT       0.0739
   5482 WAT         4.4090   17.5940   18.0910 O      5482 WAT       0.0783
   5483 WAT         4.4090   17.5940   18.3410 O      5483 WAT       0.0685
   5484 WAT         4.4090   17.5940   18.5910 O      5484 WAT       0.0511
   5485 WAT         4.4090   17.5940   20.0910 O      5485 WAT       0.0451
   5486 WAT         4.4090   17.5940   20.3410 O      5486 WAT       0.0625
   5487 WAT         4.4090   17.5940   20.5910 O      5487 WAT       0.0742
   5488 WAT         4.4090   17.5940   20.8410 O      5488 WAT       0.0720
   5489 WAT         4.4090   17.5940   21.0910 O      5489 WAT       0.0560
   5490 WAT         4.4090   17.5940   29.3410 O      5490 WAT       0.0551
   5491 WAT         4.4090   17.5940   29.5910 O      5491 WAT       0.0478
   5492 WAT         4.4090   17.8440   17.5910 O      5492 WAT       0.0627
   5493 WAT         4.4090   17.8440   17.8410 O      5493 WAT       0.0811
   5494 WAT         4.4090   17.8440   18.0910 O      5494 WAT       0.0856
   5495 WAT         4.4090   17.8440   18.3410 O      5495 WAT       0.0745
   5496 WAT         4.4090   17.8440   18.5910 O      5496 WAT       0.0553
   5497 WAT         4.4090   17.8440   20.3410 O      5497 WAT       0.0581
   5498 WAT         4.4090   17.8440   20.5910 O      5498 WAT       0.0692
   5499 WAT         4.4090   17.8440   20.8410 O      5499 WAT       0.0675
   5500 WAT         4.4090   17.8440   21.0910 O      5500 WAT       0.0528
   5501 WAT         4.4090   18.0940   17.5910 O      5501 WAT       0.0652
   5502 WAT         4.4090   18.0940   17.8410 O      5502 WAT       0.0842
   5503 WAT         4.4090   18.0940   18.0910 O      5503 WAT       0.0885
   5504 WAT         4.4090   18.0940   18.3410 O      5504 WAT       0.0769
   5505 WAT         4.4090   18.0940   18.5910 O      5505 WAT       0.0573
   5506 WAT         4.4090   18.0940   20.3410 O      5506 WAT       0.0501
   5507 WAT         4.4090   18.0940   20.5910 O      5507 WAT       0.0593
   5508 WAT         4.4090   18.0940   20.8410 O      5508 WAT       0.0574
   5509 WAT         4.4090   18.3440   17.5910 O      5509 WAT       0.0648
   5510 WAT         4.4090   18.3440   17.8410 O      5510 WAT       0.0824
   5511 WAT         4.4090   18.3440   18.0910 O      5511 WAT       0.0854
   5512 WAT         4.4090   18.3440   18.3410 O      5512 WAT       0.0737
   5513 WAT         4.4090   18.3440   18.5910 O      5513 WAT       0.0550
   5514 WAT         4.4090   18.3440   20.5910 O      5514 WAT       0.0469
   5515 WAT         4.4090   18.3440   22.8410 O      5515 WAT       0.0505
   5516 WAT         4.4090   18.3440   23.0910 O      5516 WAT       0.0466
   5517 WAT         4.4090   18.5940   17.5910 O      5517 WAT       0.0593
   5518 WAT         4.4090   18.5940   17.8410 O      5518 WAT       0.0730
   5519 WAT         4.4090   18.5940   18.0910 O      5519 WAT       0.0735
   5520 WAT         4.4090   18.5940   18.3410 O      5520 WAT       0.0620
   5521 WAT         4.4090   18.5940   18.5910 O      5521 WAT       0.0460
   5522 WAT         4.4090   18.5940   22.5910 O      5522 WAT       0.0640
   5523 WAT         4.4090   18.5940   22.8410 O      5523 WAT       0.0766
   5524 WAT         4.4090   18.5940   23.0910 O      5524 WAT       0.0701
   5525 WAT         4.4090   18.5940   23.3410 O      5525 WAT       0.0479
   5526 WAT         4.4090   18.8440   17.5910 O      5526 WAT       0.0477
   5527 WAT         4.4090   18.8440   17.8410 O      5527 WAT       0.0557
   5528 WAT         4.4090   18.8440   18.0910 O      5528 WAT       0.0533
   5529 WAT         4.4090   18.8440   22.3410 O      5529 WAT       0.0561
   5530 WAT         4.4090   18.8440   22.5910 O      5530 WAT       0.0836
   5531 WAT         4.4090   18.8440   22.8410 O      5531 WAT       0.0992
   5532 WAT         4.4090   18.8440   23.0910 O      5532 WAT       0.0913
   5533 WAT         4.4090   18.8440   23.3410 O      5533 WAT       0.0631
   5534 WAT         4.4090   19.0940   22.3410 O      5534 WAT       0.0672
   5535 WAT         4.4090   19.0940   22.5910 O      5535 WAT       0.0978
   5536 WAT         4.4090   19.0940   22.8410 O      5536 WAT       0.1157
   5537 WAT         4.4090   19.0940   23.0910 O      5537 WAT       0.1079
   5538 WAT         4.4090   19.0940   23.3410 O      5538 WAT       0.0763
   5539 WAT         4.4090   19.3440   22.3410 O      5539 WAT       0.0770
   5540 WAT         4.4090   19.3440   22.5910 O      5540 WAT       0.1105
   5541 WAT         4.4090   19.3440   22.8410 O      5541 WAT       0.1305
   5542 WAT         4.4090   19.3440   23.0910 O      5542 WAT       0.1229
   5543 WAT         4.4090   19.3440   23.3410 O      5543 WAT       0.0885
   5544 WAT         4.4090   19.3440   23.5910 O      5544 WAT       0.0467
   5545 WAT         4.4090   19.5940   22.0910 O      5545 WAT       0.0507
   5546 WAT         4.4090   19.5940   22.3410 O      5546 WAT       0.0878
   5547 WAT         4.4090   19.5940   22.5910 O      5547 WAT       0.1259
   5548 WAT         4.4090   19.5940   22.8410 O      5548 WAT       0.1484
   5549 WAT         4.4090   19.5940   23.0910 O      5549 WAT       0.1398
   5550 WAT         4.4090   19.5940   23.3410 O      5550 WAT       0.1008
   5551 WAT         4.4090   19.5940   23.5910 O      5551 WAT       0.0534
   5552 WAT         4.4090   19.8440   22.0910 O      5552 WAT       0.0529
   5553 WAT         4.4090   19.8440   22.3410 O      5553 WAT       0.0957
   5554 WAT         4.4090   19.8440   22.5910 O      5554 WAT       0.1403
   5555 WAT         4.4090   19.8440   22.8410 O      5555 WAT       0.1663
   5556 WAT         4.4090   19.8440   23.0910 O      5556 WAT       0.1557
   5557 WAT         4.4090   19.8440   23.3410 O      5557 WAT       0.1110
   5558 WAT         4.4090   19.8440   23.5910 O      5558 WAT       0.0580
   5559 WAT         4.4090   20.0940   22.0910 O      5559 WAT       0.0473
   5560 WAT         4.4090   20.0940   22.3410 O      5560 WAT       0.0913
   5561 WAT         4.4090   20.0940   22.5910 O      5561 WAT       0.1394
   5562 WAT         4.4090   20.0940   22.8410 O      5562 WAT       0.1686
   5563 WAT         4.4090   20.0940   23.0910 O      5563 WAT       0.1582
   5564 WAT         4.4090   20.0940   23.3410 O      5564 WAT       0.1116
   5565 WAT         4.4090   20.0940   23.5910 O      5565 WAT       0.0573
   5566 WAT         4.4090   20.3440   22.3410 O      5566 WAT       0.0693
   5567 WAT         4.4090   20.3440   22.5910 O      5567 WAT       0.1116
   5568 WAT         4.4090   20.3440   22.8410 O      5568 WAT       0.1393
   5569 WAT         4.4090   20.3440   23.0910 O      5569 WAT       0.1327
   5570 WAT         4.4090   20.3440   23.3410 O      5570 WAT       0.0937
   5571 WAT         4.4090   20.3440   23.5910 O      5571 WAT       0.0476
   5572 WAT         4.4090   20.5940   11.3410 O      5572 WAT       0.0638
   5573 WAT         4.4090   20.5940   11.5910 O      5573 WAT       0.0796
   5574 WAT         4.4090   20.5940   11.8410 O      5574 WAT       0.0727
   5575 WAT         4.4090   20.5940   12.0910 O      5575 WAT       0.0475
   5576 WAT         4.4090   20.5940   22.5910 O      5576 WAT       0.0664
   5577 WAT         4.4090   20.5940   22.8410 O      5577 WAT       0.0863
   5578 WAT         4.4090   20.5940   23.0910 O      5578 WAT       0.0843
   5579 WAT         4.4090   20.5940   23.3410 O      5579 WAT       0.0603
   5580 WAT         4.4090   20.8440   11.0910 O      5580 WAT       0.0638
   5581 WAT         4.4090   20.8440   11.3410 O      5581 WAT       0.1118
   5582 WAT         4.4090   20.8440   11.5910 O      5582 WAT       0.1487
   5583 WAT         4.4090   20.8440   11.8410 O      5583 WAT       0.1434
   5584 WAT         4.4090   20.8440   12.0910 O      5584 WAT       0.0982
   5585 WAT         4.4090   20.8440   12.3410 O      5585 WAT       0.0474
   5586 WAT         4.4090   21.0940   11.0910 O      5586 WAT       0.0788
   5587 WAT         4.4090   21.0940   11.3410 O      5587 WAT       0.1438
   5588 WAT         4.4090   21.0940   11.5910 O      5588 WAT       0.1997
   5589 WAT         4.4090   21.0940   11.8410 O      5589 WAT       0.2001
   5590 WAT         4.4090   21.0940   12.0910 O      5590 WAT       0.1418
   5591 WAT         4.4090   21.0940   12.3410 O      5591 WAT       0.0707
   5592 WAT         4.4090   21.3440   11.0910 O      5592 WAT       0.0710
   5593 WAT         4.4090   21.3440   11.3410 O      5593 WAT       0.1319
   5594 WAT         4.4090   21.3440   11.5910 O      5594 WAT       0.1883
   5595 WAT         4.4090   21.3440   11.8410 O      5595 WAT       0.1941
   5596 WAT         4.4090   21.3440   12.0910 O      5596 WAT       0.1412
   5597 WAT         4.4090   21.3440   12.3410 O      5597 WAT       0.0721
   5598 WAT         4.4090   21.5940   11.0910 O      5598 WAT       0.0451
   5599 WAT         4.4090   21.5940   11.3410 O      5599 WAT       0.0841
   5600 WAT         4.4090   21.5940   11.5910 O      5600 WAT       0.1221
   5601 WAT         4.4090   21.5940   11.8410 O      5601 WAT       0.1285
   5602 WAT         4.4090   21.5940   12.0910 O      5602 WAT       0.0953
   5603 WAT         4.4090   21.5940   12.3410 O      5603 WAT       0.0495
   5604 WAT         4.4090   21.8440   11.5910 O      5604 WAT       0.0531
   5605 WAT         4.4090   21.8440   11.8410 O      5605 WAT       0.0567
   5606 WAT         4.4090   22.3440    8.3410 O      5606 WAT       0.0549
   5607 WAT         4.4090   22.3440    8.5910 O      5607 WAT       0.0625
   5608 WAT         4.4090   22.3440    8.8410 O      5608 WAT       0.0618
   5609 WAT         4.4090   22.3440    9.0910 O      5609 WAT       0.0506
   5610 WAT         4.4090   22.5940    8.3410 O      5610 WAT       0.0620
   5611 WAT         4.4090   22.5940    8.5910 O      5611 WAT       0.0759
   5612 WAT         4.4090   22.5940    8.8410 O      5612 WAT       0.0779
   5613 WAT         4.4090   22.5940    9.0910 O      5613 WAT       0.0637
   5614 WAT         4.4090   22.8440    8.3410 O      5614 WAT       0.0483
   5615 WAT         4.4090   22.8440    8.5910 O      5615 WAT       0.0639
   5616 WAT         4.4090   22.8440    8.8410 O      5616 WAT       0.0686
   5617 WAT         4.4090   22.8440    9.0910 O      5617 WAT       0.0570
   5618 WAT         4.4090   23.0940    5.5910 O      5618 WAT       0.0481
   5619 WAT         4.4090   23.3440    5.0910 O      5619 WAT       0.0601
   5620 WAT         4.4090   23.3440    5.3410 O      5620 WAT       0.0746
   5621 WAT         4.4090   23.3440    5.5910 O      5621 WAT       0.0684
   5622 WAT         4.4090   23.3440    5.8410 O      5622 WAT       0.0464
   5623 WAT         4.4090   23.5940    4.8410 O      5623 WAT       0.0642
   5624 WAT         4.4090   23.5940    5.0910 O      5624 WAT       0.0945
   5625 WAT         4.4090   23.5940    5.3410 O      5625 WAT       0.1015
   5626 WAT         4.4090   23.5940    5.5910 O      5626 WAT       0.0796
   5627 WAT         4.4090   23.5940    5.8410 O      5627 WAT       0.0457
   5628 WAT         4.4090   23.8440    4.5910 O      5628 WAT       0.0520
   5629 WAT         4.4090   23.8440    4.8410 O      5629 WAT       0.0939
   5630 WAT         4.4090   23.8440    5.0910 O      5630 WAT       0.1221
   5631 WAT         4.4090   23.8440    5.3410 O      5631 WAT       0.1140
   5632 WAT         4.4090   23.8440    5.5910 O      5632 WAT       0.0768
   5633 WAT         4.4090   24.0940    4.5910 O      5633 WAT       0.0698
   5634 WAT         4.4090   24.0940    4.8410 O      5634 WAT       0.1126
   5635 WAT         4.4090   24.0940    5.0910 O      5635 WAT       0.1297
   5636 WAT         4.4090   24.0940    5.3410 O      5636 WAT       0.1059
   5637 WAT         4.4090   24.0940    5.5910 O      5637 WAT       0.0615
   5638 WAT         4.4090   24.3440    4.5910 O      5638 WAT       0.0770
   5639 WAT         4.4090   24.3440    4.8410 O      5639 WAT       0.1109
   5640 WAT         4.4090   24.3440    5.0910 O      5640 WAT       0.1133
   5641 WAT         4.4090   24.3440    5.3410 O      5641 WAT       0.0812
   5642 WAT         4.4090   24.5940    4.5910 O      5642 WAT       0.0693
   5643 WAT         4.4090   24.5940    4.8410 O      5643 WAT       0.0890
   5644 WAT         4.4090   24.5940    5.0910 O      5644 WAT       0.0808
   5645 WAT         4.4090   24.5940    5.3410 O      5645 WAT       0.0509
   5646 WAT         4.4090   24.8440    4.5910 O      5646 WAT       0.0505
   5647 WAT         4.4090   24.8440    4.8410 O      5647 WAT       0.0572
   5648 WAT         4.4090   24.8440    5.0910 O      5648 WAT       0.0461
   5649 WAT         4.4090   25.3440    3.0910 O      5649 WAT       0.0496
   5650 WAT         4.4090   25.3440    3.3410 O      5650 WAT       0.0480
   5651 WAT         4.4090   25.5940    2.8410 O      5651 WAT       0.0479
   5652 WAT         4.4090   25.5940    3.0910 O      5652 WAT       0.0543
   5653 WAT         4.4090   25.5940    3.3410 O      5653 WAT       0.0520
   5654 WAT         4.4090   25.8440    2.8410 O      5654 WAT       0.0507
   5655 WAT         4.4090   25.8440    3.0910 O      5655 WAT       0.0567
   5656 WAT         4.4090   25.8440    3.3410 O      5656 WAT       0.0527
   5657 WAT         4.4090   26.0940    2.8410 O      5657 WAT       0.0518
   5658 WAT         4.4090   26.0940    3.0910 O      5658 WAT       0.0556
   5659 WAT         4.4090   26.0940    3.3410 O      5659 WAT       0.0490
   5660 WAT         4.4090   26.3440    2.8410 O      5660 WAT       0.0513
   5661 WAT         4.4090   26.3440    3.0910 O      5661 WAT       0.0513
   5662 WAT         4.4090   26.5940    2.5910 O      5662 WAT       0.0456
   5663 WAT         4.4090   26.5940    2.8410 O      5663 WAT       0.0500
   5664 WAT         4.4090   26.5940    3.0910 O      5664 WAT       0.0457
   5665 WAT         4.4090   26.8440    2.5910 O      5665 WAT       0.0481
   5666 WAT         4.4090   26.8440    2.8410 O      5666 WAT       0.0490
   5667 WAT         4.4090   27.0940    2.5910 O      5667 WAT       0.0510
   5668 WAT         4.4090   27.0940    2.8410 O      5668 WAT       0.0492
   5669 WAT         4.4090   27.3440    2.5910 O      5669 WAT       0.0549
   5670 WAT         4.4090   27.3440    2.8410 O      5670 WAT       0.0515
   5671 WAT         4.4090   27.5940    2.5910 O      5671 WAT       0.0603
   5672 WAT         4.4090   27.5940    2.8410 O      5672 WAT       0.0565
   5673 WAT         4.4090   27.8440    2.5910 O      5673 WAT       0.0668
   5674 WAT         4.4090   27.8440    2.8410 O      5674 WAT       0.0632
   5675 WAT         4.4090   28.0940    2.5910 O      5675 WAT       0.0732
   5676 WAT         4.4090   28.0940    2.8410 O      5676 WAT       0.0690
   5677 WAT         4.4090   28.0940    3.0910 O      5677 WAT       0.0483
   5678 WAT         4.4090   28.3440    2.5910 O      5678 WAT       0.0774
   5679 WAT         4.4090   28.3440    2.8410 O      5679 WAT       0.0714
   5680 WAT         4.4090   28.3440    3.0910 O      5680 WAT       0.0491
   5681 WAT         4.4090   28.5940    2.5910 O      5681 WAT       0.0766
   5682 WAT         4.4090   28.5940    2.8410 O      5682 WAT       0.0681
   5683 WAT         4.4090   28.5940    3.0910 O      5683 WAT       0.0456
   5684 WAT         4.4090   28.8440    2.5910 O      5684 WAT       0.0691
   5685 WAT         4.4090   28.8440    2.8410 O      5685 WAT       0.0589
   5686 WAT         4.4090   29.0940    2.5910 O      5686 WAT       0.0570
   5687 WAT         4.4090   29.0940    2.8410 O      5687 WAT       0.0467
   5688 WAT         4.6590    8.3440   25.0910 O      5688 WAT       0.0539
   5689 WAT         4.6590    8.3440   25.3410 O      5689 WAT       0.0853
   5690 WAT         4.6590    8.3440   25.5910 O      5690 WAT       0.1140
   5691 WAT         4.6590    8.3440   25.8410 O      5691 WAT       0.1236
   5692 WAT         4.6590    8.3440   26.0910 O      5692 WAT       0.1070
   5693 WAT         4.6590    8.3440   26.3410 O      5693 WAT       0.0742
   5694 WAT         4.6590    8.5940   25.0910 O      5694 WAT       0.0553
   5695 WAT         4.6590    8.5940   25.3410 O      5695 WAT       0.0779
   5696 WAT         4.6590    8.5940   25.5910 O      5696 WAT       0.0943
   5697 WAT         4.6590    8.5940   25.8410 O      5697 WAT       0.0957
   5698 WAT         4.6590    8.5940   26.0910 O      5698 WAT       0.0807
   5699 WAT         4.6590    8.5940   26.3410 O      5699 WAT       0.0567
   5700 WAT         4.6590    8.8440   25.0910 O      5700 WAT       0.0548
   5701 WAT         4.6590    8.8440   25.3410 O      5701 WAT       0.0684
   5702 WAT         4.6590    8.8440   25.5910 O      5702 WAT       0.0734
   5703 WAT         4.6590    8.8440   25.8410 O      5703 WAT       0.0669
   5704 WAT         4.6590    8.8440   26.0910 O      5704 WAT       0.0518
   5705 WAT         4.6590    9.0940   25.0910 O      5705 WAT       0.0534
   5706 WAT         4.6590    9.0940   25.3410 O      5706 WAT       0.0607
   5707 WAT         4.6590    9.0940   25.5910 O      5707 WAT       0.0588
   5708 WAT         4.6590    9.0940   25.8410 O      5708 WAT       0.0478
   5709 WAT         4.6590    9.3440   25.0910 O      5709 WAT       0.0509
   5710 WAT         4.6590    9.3440   25.3410 O      5710 WAT       0.0546
   5711 WAT         4.6590    9.3440   25.5910 O      5711 WAT       0.0497
   5712 WAT         4.6590    9.5940   25.0910 O      5712 WAT       0.0479
   5713 WAT         4.6590    9.5940   25.3410 O      5713 WAT       0.0499
   5714 WAT         4.6590    9.8440   25.3410 O      5714 WAT       0.0463
   5715 WAT         4.6590   10.8440   28.0910 O      5715 WAT       0.0479
   5716 WAT         4.6590   11.0940   25.0910 O      5716 WAT       0.0458
   5717 WAT         4.6590   11.0940   25.3410 O      5717 WAT       0.0539
   5718 WAT         4.6590   11.0940   25.5910 O      5718 WAT       0.0550
   5719 WAT         4.6590   11.0940   25.8410 O      5719 WAT       0.0469
   5720 WAT         4.6590   11.3440   25.0910 O      5720 WAT       0.0546
   5721 WAT         4.6590   11.3440   25.3410 O      5721 WAT       0.0664
   5722 WAT         4.6590   11.3440   25.5910 O      5722 WAT       0.0713
   5723 WAT         4.6590   11.3440   25.8410 O      5723 WAT       0.0645
   5724 WAT         4.6590   11.3440   26.0910 O      5724 WAT       0.0478
   5725 WAT         4.6590   11.5940   24.8410 O      5725 WAT       0.0468
   5726 WAT         4.6590   11.5940   25.0910 O      5726 WAT       0.0620
   5727 WAT         4.6590   11.5940   25.3410 O      5727 WAT       0.0782
   5728 WAT         4.6590   11.5940   25.5910 O      5728 WAT       0.0884
   5729 WAT         4.6590   11.5940   25.8410 O      5729 WAT       0.0851
   5730 WAT         4.6590   11.5940   26.0910 O      5730 WAT       0.0679
   5731 WAT         4.6590   11.8440   24.8410 O      5731 WAT       0.0494
   5732 WAT         4.6590   11.8440   25.0910 O      5732 WAT       0.0651
   5733 WAT         4.6590   11.8440   25.3410 O      5733 WAT       0.0839
   5734 WAT         4.6590   11.8440   25.5910 O      5734 WAT       0.0990
   5735 WAT         4.6590   11.8440   25.8410 O      5735 WAT       0.1012
   5736 WAT         4.6590   11.8440   26.0910 O      5736 WAT       0.0868
   5737 WAT         4.6590   11.8440   26.3410 O      5737 WAT       0.0622
   5738 WAT         4.6590   12.0940   24.8410 O      5738 WAT       0.0490
   5739 WAT         4.6590   12.0940   25.0910 O      5739 WAT       0.0629
   5740 WAT         4.6590   12.0940   25.3410 O      5740 WAT       0.0808
   5741 WAT         4.6590   12.0940   25.5910 O      5741 WAT       0.0980
   5742 WAT         4.6590   12.0940   25.8410 O      5742 WAT       0.1055
   5743 WAT         4.6590   12.0940   26.0910 O      5743 WAT       0.0969
   5744 WAT         4.6590   12.0940   26.3410 O      5744 WAT       0.0752
   5745 WAT         4.6590   12.0940   26.5910 O      5745 WAT       0.0506
   5746 WAT         4.6590   12.3440   24.8410 O      5746 WAT       0.0462
   5747 WAT         4.6590   12.3440   25.0910 O      5747 WAT       0.0565
   5748 WAT         4.6590   12.3440   25.3410 O      5748 WAT       0.0706
   5749 WAT         4.6590   12.3440   25.5910 O      5749 WAT       0.0863
   5750 WAT         4.6590   12.3440   25.8410 O      5750 WAT       0.0968
   5751 WAT         4.6590   12.3440   26.0910 O      5751 WAT       0.0948
   5752 WAT         4.6590   12.3440   26.3410 O      5752 WAT       0.0797
   5753 WAT         4.6590   12.3440   26.5910 O      5753 WAT       0.0584
   5754 WAT         4.6590   12.5940   25.0910 O      5754 WAT       0.0485
   5755 WAT         4.6590   12.5940   25.3410 O      5755 WAT       0.0577
   5756 WAT         4.6590   12.5940   25.5910 O      5756 WAT       0.0691
   5757 WAT         4.6590   12.5940   25.8410 O      5757 WAT       0.0792
   5758 WAT         4.6590   12.5940   26.0910 O      5758 WAT       0.0819
   5759 WAT         4.6590   12.5940   26.3410 O      5759 WAT       0.0741
   5760 WAT         4.6590   12.5940   26.5910 O      5760 WAT       0.0589
   5761 WAT         4.6590   12.8440   25.3410 O      5761 WAT       0.0455
   5762 WAT         4.6590   12.8440   25.5910 O      5762 WAT       0.0517
   5763 WAT         4.6590   12.8440   25.8410 O      5763 WAT       0.0583
   5764 WAT         4.6590   12.8440   26.0910 O      5764 WAT       0.0619
   5765 WAT         4.6590   12.8440   26.3410 O      5765 WAT       0.0594
   5766 WAT         4.6590   12.8440   26.5910 O      5766 WAT       0.0508
   5767 WAT         4.6590   14.3440   25.5910 O      5767 WAT       0.0509
   5768 WAT         4.6590   14.3440   25.8410 O      5768 WAT       0.0587
   5769 WAT         4.6590   14.3440   26.0910 O      5769 WAT       0.0584
   5770 WAT         4.6590   14.3440   26.3410 O      5770 WAT       0.0505
   5771 WAT         4.6590   14.5940   25.3410 O      5771 WAT       0.0464
   5772 WAT         4.6590   14.5940   25.5910 O      5772 WAT       0.0650
   5773 WAT         4.6590   14.5940   25.8410 O      5773 WAT       0.0795
   5774 WAT         4.6590   14.5940   26.0910 O      5774 WAT       0.0851
   5775 WAT         4.6590   14.5940   26.3410 O      5775 WAT       0.0801
   5776 WAT         4.6590   14.5940   26.5910 O      5776 WAT       0.0649
   5777 WAT         4.6590   14.8440   25.3410 O      5777 WAT       0.0509
   5778 WAT         4.6590   14.8440   25.5910 O      5778 WAT       0.0743
   5779 WAT         4.6590   14.8440   25.8410 O      5779 WAT       0.0969
   5780 WAT         4.6590   14.8440   26.0910 O      5780 WAT       0.1134
   5781 WAT         4.6590   14.8440   26.3410 O      5781 WAT       0.1184
   5782 WAT         4.6590   14.8440   26.5910 O      5782 WAT       0.1062
   5783 WAT         4.6590   14.8440   26.8410 O      5783 WAT       0.0772
   5784 WAT         4.6590   15.0940   25.3410 O      5784 WAT       0.0519
   5785 WAT         4.6590   15.0940   25.5910 O      5785 WAT       0.0782
   5786 WAT         4.6590   15.0940   25.8410 O      5786 WAT       0.1090
   5787 WAT         4.6590   15.0940   26.0910 O      5787 WAT       0.1400
   5788 WAT         4.6590   15.0940   26.3410 O      5788 WAT       0.1619
   5789 WAT         4.6590   15.0940   26.5910 O      5789 WAT       0.1598
   5790 WAT         4.6590   15.0940   26.8410 O      5790 WAT       0.1261
   5791 WAT         4.6590   15.0940   27.0910 O      5791 WAT       0.0760
   5792 WAT         4.6590   15.3440   25.3410 O      5792 WAT       0.0510
   5793 WAT         4.6590   15.3440   25.5910 O      5793 WAT       0.0787
   5794 WAT         4.6590   15.3440   25.8410 O      5794 WAT       0.1157
   5795 WAT         4.6590   15.3440   26.0910 O      5795 WAT       0.1601
   5796 WAT         4.6590   15.3440   26.3410 O      5796 WAT       0.2002
   5797 WAT         4.6590   15.3440   26.5910 O      5797 WAT       0.2119
   5798 WAT         4.6590   15.3440   26.8410 O      5798 WAT       0.1782
   5799 WAT         4.6590   15.3440   27.0910 O      5799 WAT       0.1139
   5800 WAT         4.6590   15.3440   27.3410 O      5800 WAT       0.0543
   5801 WAT         4.6590   15.5940   25.3410 O      5801 WAT       0.0487
   5802 WAT         4.6590   15.5940   25.5910 O      5802 WAT       0.0752
   5803 WAT         4.6590   15.5940   25.8410 O      5803 WAT       0.1133
   5804 WAT         4.6590   15.5940   26.0910 O      5804 WAT       0.1629
   5805 WAT         4.6590   15.5940   26.3410 O      5805 WAT       0.2125
   5806 WAT         4.6590   15.5940   26.5910 O      5806 WAT       0.2344
   5807 WAT         4.6590   15.5940   26.8410 O      5807 WAT       0.2056
   5808 WAT         4.6590   15.5940   27.0910 O      5808 WAT       0.1377
   5809 WAT         4.6590   15.5940   27.3410 O      5809 WAT       0.0692
   5810 WAT         4.6590   15.8440   25.5910 O      5810 WAT       0.0654
   5811 WAT         4.6590   15.8440   25.8410 O      5811 WAT       0.0967
   5812 WAT         4.6590   15.8440   26.0910 O      5812 WAT       0.1384
   5813 WAT         4.6590   15.8440   26.3410 O      5813 WAT       0.1818
   5814 WAT         4.6590   15.8440   26.5910 O      5814 WAT       0.2040
   5815 WAT         4.6590   15.8440   26.8410 O      5815 WAT       0.1838
   5816 WAT         4.6590   15.8440   27.0910 O      5816 WAT       0.1276
   5817 WAT         4.6590   15.8440   27.3410 O      5817 WAT       0.0671
   5818 WAT         4.6590   15.8440   28.8410 O      5818 WAT       0.0451
   5819 WAT         4.6590   15.8440   29.0910 O      5819 WAT       0.0583
   5820 WAT         4.6590   15.8440   29.3410 O      5820 WAT       0.0535
   5821 WAT         4.6590   16.0940   25.5910 O      5821 WAT       0.0487
   5822 WAT         4.6590   16.0940   25.8410 O      5822 WAT       0.0675
   5823 WAT         4.6590   16.0940   26.0910 O      5823 WAT       0.0923
   5824 WAT         4.6590   16.0940   26.3410 O      5824 WAT       0.1185
   5825 WAT         4.6590   16.0940   26.5910 O      5825 WAT       0.1328
   5826 WAT         4.6590   16.0940   26.8410 O      5826 WAT       0.1212
   5827 WAT         4.6590   16.0940   27.0910 O      5827 WAT       0.0864
   5828 WAT         4.6590   16.0940   27.3410 O      5828 WAT       0.0472
   5829 WAT         4.6590   16.0940   28.5910 O      5829 WAT       0.0636
   5830 WAT         4.6590   16.0940   28.8410 O      5830 WAT       0.1173
   5831 WAT         4.6590   16.0940   29.0910 O      5831 WAT       0.1599
   5832 WAT         4.6590   16.0940   29.3410 O      5832 WAT       0.1548
   5833 WAT         4.6590   16.0940   29.5910 O      5833 WAT       0.1023
   5834 WAT         4.6590   16.3440   26.0910 O      5834 WAT       0.0458
   5835 WAT         4.6590   16.3440   26.3410 O      5835 WAT       0.0561
   5836 WAT         4.6590   16.3440   26.5910 O      5836 WAT       0.0617
   5837 WAT         4.6590   16.3440   26.8410 O      5837 WAT       0.0564
   5838 WAT         4.6590   16.3440   28.5910 O      5838 WAT       0.1050
   5839 WAT         4.6590   16.3440   28.8410 O      5839 WAT       0.2067
   5840 WAT         4.6590   16.3440   29.0910 O      5840 WAT       0.2997
   5841 WAT         4.6590   16.3440   29.3410 O      5841 WAT       0.3076
   5842 WAT         4.6590   16.3440   29.5910 O      5842 WAT       0.2142
   5843 WAT         4.6590   16.5940   28.5910 O      5843 WAT       0.1178
   5844 WAT         4.6590   16.5940   28.8410 O      5844 WAT       0.2493
   5845 WAT         4.6590   16.5940   29.0910 O      5845 WAT       0.3874
   5846 WAT         4.6590   16.5940   29.3410 O      5846 WAT       0.4232
   5847 WAT         4.6590   16.5940   29.5910 O      5847 WAT       0.3106
   5848 WAT         4.6590   16.8440   17.8410 O      5848 WAT       0.0520
   5849 WAT         4.6590   16.8440   18.0910 O      5849 WAT       0.0560
   5850 WAT         4.6590   16.8440   18.3410 O      5850 WAT       0.0507
   5851 WAT         4.6590   16.8440   28.5910 O      5851 WAT       0.0904
   5852 WAT         4.6590   16.8440   28.8410 O      5852 WAT       0.2080
   5853 WAT         4.6590   16.8440   29.0910 O      5853 WAT       0.3481
   5854 WAT         4.6590   16.8440   29.3410 O      5854 WAT       0.4051
   5855 WAT         4.6590   16.8440   29.5910 O      5855 WAT       0.3130
   5856 WAT         4.6590   17.0940   11.8410 O      5856 WAT       0.0481
   5857 WAT         4.6590   17.0940   12.0910 O      5857 WAT       0.0483
   5858 WAT         4.6590   17.0940   17.5910 O      5858 WAT       0.0532
   5859 WAT         4.6590   17.0940   17.8410 O      5859 WAT       0.0716
   5860 WAT         4.6590   17.0940   18.0910 O      5860 WAT       0.0780
   5861 WAT         4.6590   17.0940   18.3410 O      5861 WAT       0.0696
   5862 WAT         4.6590   17.0940   18.5910 O      5862 WAT       0.0525
   5863 WAT         4.6590   17.0940   28.5910 O      5863 WAT       0.0477
   5864 WAT         4.6590   17.0940   28.8410 O      5864 WAT       0.1218
   5865 WAT         4.6590   17.0940   29.0910 O      5865 WAT       0.2201
   5866 WAT         4.6590   17.0940   29.3410 O      5866 WAT       0.2726
   5867 WAT         4.6590   17.0940   29.5910 O      5867 WAT       0.2210
   5868 WAT         4.6590   17.3440   11.8410 O      5868 WAT       0.0453
   5869 WAT         4.6590   17.3440   17.5910 O      5869 WAT       0.0650
   5870 WAT         4.6590   17.3440   17.8410 O      5870 WAT       0.0887
   5871 WAT         4.6590   17.3440   18.0910 O      5871 WAT       0.0966
   5872 WAT         4.6590   17.3440   18.3410 O      5872 WAT       0.0849
   5873 WAT         4.6590   17.3440   18.5910 O      5873 WAT       0.0618
   5874 WAT         4.6590   17.3440   28.8410 O      5874 WAT       0.0505
   5875 WAT         4.6590   17.3440   29.0910 O      5875 WAT       0.0996
   5876 WAT         4.6590   17.3440   29.3410 O      5876 WAT       0.1309
   5877 WAT         4.6590   17.3440   29.5910 O      5877 WAT       0.1106
   5878 WAT         4.6590   17.5940   17.5910 O      5878 WAT       0.0713
   5879 WAT         4.6590   17.5940   17.8410 O      5879 WAT       0.0970
   5880 WAT         4.6590   17.5940   18.0910 O      5880 WAT       0.1047
   5881 WAT         4.6590   17.5940   18.3410 O      5881 WAT       0.0910
   5882 WAT         4.6590   17.5940   18.5910 O      5882 WAT       0.0651
   5883 WAT         4.6590   17.5940   29.3410 O      5883 WAT       0.0453
   5884 WAT         4.6590   17.8440   17.5910 O      5884 WAT       0.0706
   5885 WAT         4.6590   17.8440   17.8410 O      5885 WAT       0.0955
   5886 WAT         4.6590   17.8440   18.0910 O      5886 WAT       0.1022
   5887 WAT         4.6590   17.8440   18.3410 O      5887 WAT       0.0880
   5888 WAT         4.6590   17.8440   18.5910 O      5888 WAT       0.0625
   5889 WAT         4.6590   18.0940   17.5910 O      5889 WAT       0.0655
   5890 WAT         4.6590   18.0940   17.8410 O      5890 WAT       0.0880
   5891 WAT         4.6590   18.0940   18.0910 O      5891 WAT       0.0935
   5892 WAT         4.6590   18.0940   18.3410 O      5892 WAT       0.0798
   5893 WAT         4.6590   18.0940   18.5910 O      5893 WAT       0.0566
   5894 WAT         4.6590   18.0940   22.8410 O      5894 WAT       0.0490
   5895 WAT         4.6590   18.0940   23.0910 O      5895 WAT       0.0463
   5896 WAT         4.6590   18.3440   17.5910 O      5896 WAT       0.0581
   5897 WAT         4.6590   18.3440   17.8410 O      5897 WAT       0.0768
   5898 WAT         4.6590   18.3440   18.0910 O      5898 WAT       0.0802
   5899 WAT         4.6590   18.3440   18.3410 O      5899 WAT       0.0677
   5900 WAT         4.6590   18.3440   18.5910 O      5900 WAT       0.0478
   5901 WAT         4.6590   18.3440   22.5910 O      5901 WAT       0.0645
   5902 WAT         4.6590   18.3440   22.8410 O      5902 WAT       0.0777
   5903 WAT         4.6590   18.3440   23.0910 O      5903 WAT       0.0710
   5904 WAT         4.6590   18.3440   23.3410 O      5904 WAT       0.0478
   5905 WAT         4.6590   18.5940   17.5910 O      5905 WAT       0.0477
   5906 WAT         4.6590   18.5940   17.8410 O      5906 WAT       0.0611
   5907 WAT         4.6590   18.5940   18.0910 O      5907 WAT       0.0619
   5908 WAT         4.6590   18.5940   18.3410 O      5908 WAT       0.0510
   5909 WAT         4.6590   18.5940   22.3410 O      5909 WAT       0.0608
   5910 WAT         4.6590   18.5940   22.5910 O      5910 WAT       0.0917
   5911 WAT         4.6590   18.5940   22.8410 O      5911 WAT       0.1074
   5912 WAT         4.6590   18.5940   23.0910 O      5912 WAT       0.0960
   5913 WAT         4.6590   18.5940   23.3410 O      5913 WAT       0.0637
   5914 WAT         4.6590   18.8440   22.3410 O      5914 WAT       0.0761
   5915 WAT         4.6590   18.8440   22.5910 O      5915 WAT       0.1109
   5916 WAT         4.6590   18.8440   22.8410 O      5916 WAT       0.1273
   5917 WAT         4.6590   18.8440   23.0910 O      5917 WAT       0.1131
   5918 WAT         4.6590   18.8440   23.3410 O      5918 WAT       0.0752
   5919 WAT         4.6590   19.0940   22.0910 O      5919 WAT       0.0489
   5920 WAT         4.6590   19.0940   22.3410 O      5920 WAT       0.0847
   5921 WAT         4.6590   19.0940   22.5910 O      5921 WAT       0.1194
   5922 WAT         4.6590   19.0940   22.8410 O      5922 WAT       0.1356
   5923 WAT         4.6590   19.0940   23.0910 O      5923 WAT       0.1210
   5924 WAT         4.6590   19.0940   23.3410 O      5924 WAT       0.0817
   5925 WAT         4.6590   19.3440   22.0910 O      5925 WAT       0.0536
   5926 WAT         4.6590   19.3440   22.3410 O      5926 WAT       0.0899
   5927 WAT         4.6590   19.3440   22.5910 O      5927 WAT       0.1238
   5928 WAT         4.6590   19.3440   22.8410 O      5928 WAT       0.1395
   5929 WAT         4.6590   19.3440   23.0910 O      5929 WAT       0.1254
   5930 WAT         4.6590   19.3440   23.3410 O      5930 WAT       0.0862
   5931 WAT         4.6590   19.5940   22.0910 O      5931 WAT       0.0570
   5932 WAT         4.6590   19.5940   22.3410 O      5932 WAT       0.0953
   5933 WAT         4.6590   19.5940   22.5910 O      5933 WAT       0.1303
   5934 WAT         4.6590   19.5940   22.8410 O      5934 WAT       0.1462
   5935 WAT         4.6590   19.5940   23.0910 O      5935 WAT       0.1314
   5936 WAT         4.6590   19.5940   23.3410 O      5936 WAT       0.0907
   5937 WAT         4.6590   19.5940   23.5910 O      5937 WAT       0.0458
   5938 WAT         4.6590   19.8440   22.0910 O      5938 WAT       0.0567
   5939 WAT         4.6590   19.8440   22.3410 O      5939 WAT       0.0980
   5940 WAT         4.6590   19.8440   22.5910 O      5940 WAT       0.1363
   5941 WAT         4.6590   19.8440   22.8410 O      5941 WAT       0.1535
   5942 WAT         4.6590   19.8440   23.0910 O      5942 WAT       0.1374
   5943 WAT         4.6590   19.8440   23.3410 O      5943 WAT       0.0938
   5944 WAT         4.6590   19.8440   23.5910 O      5944 WAT       0.0468
   5945 WAT         4.6590   20.0940   22.0910 O      5945 WAT       0.0487
   5946 WAT         4.6590   20.0940   22.3410 O      5946 WAT       0.0892
   5947 WAT         4.6590   20.0940   22.5910 O      5947 WAT       0.1291
   5948 WAT         4.6590   20.0940   22.8410 O      5948 WAT       0.1483
   5949 WAT         4.6590   20.0940   23.0910 O      5949 WAT       0.1329
   5950 WAT         4.6590   20.0940   23.3410 O      5950 WAT       0.0897
   5951 WAT         4.6590   20.3440   22.3410 O      5951 WAT       0.0651
   5952 WAT         4.6590   20.3440   22.5910 O      5952 WAT       0.0993
   5953 WAT         4.6590   20.3440   22.8410 O      5953 WAT       0.1179
   5954 WAT         4.6590   20.3440   23.0910 O      5954 WAT       0.1072
   5955 WAT         4.6590   20.3440   23.3410 O      5955 WAT       0.0722
   5956 WAT         4.6590   20.5940   11.0910 O      5956 WAT       0.0474
   5957 WAT         4.6590   20.5940   11.3410 O      5957 WAT       0.0713
   5958 WAT         4.6590   20.5940   11.5910 O      5958 WAT       0.0801
   5959 WAT         4.6590   20.5940   11.8410 O      5959 WAT       0.0647
   5960 WAT         4.6590   20.5940   22.5910 O      5960 WAT       0.0569
   5961 WAT         4.6590   20.5940   22.8410 O      5961 WAT       0.0704
   5962 WAT         4.6590   20.5940   23.0910 O      5962 WAT       0.0657
   5963 WAT         4.6590   20.8440   11.0910 O      5963 WAT       0.0824
   5964 WAT         4.6590   20.8440   11.3410 O      5964 WAT       0.1347
   5965 WAT         4.6590   20.8440   11.5910 O      5965 WAT       0.1628
   5966 WAT         4.6590   20.8440   11.8410 O      5966 WAT       0.1399
   5967 WAT         4.6590   20.8440   12.0910 O      5967 WAT       0.0834
   5968 WAT         4.6590   21.0940   10.8410 O      5968 WAT       0.0505
   5969 WAT         4.6590   21.0940   11.0910 O      5969 WAT       0.1075
   5970 WAT         4.6590   21.0940   11.3410 O      5970 WAT       0.1857
   5971 WAT         4.6590   21.0940   11.5910 O      5971 WAT       0.2364
   5972 WAT         4.6590   21.0940   11.8410 O      5972 WAT       0.2123
   5973 WAT         4.6590   21.0940   12.0910 O      5973 WAT       0.1317
   5974 WAT         4.6590   21.0940   12.3410 O      5974 WAT       0.0556
   5975 WAT         4.6590   21.3440   10.8410 O      5975 WAT       0.0469
   5976 WAT         4.6590   21.3440   11.0910 O      5976 WAT       0.1016
   5977 WAT         4.6590   21.3440   11.3410 O      5977 WAT       0.1816
   5978 WAT         4.6590   21.3440   11.5910 O      5978 WAT       0.2400
   5979 WAT         4.6590   21.3440   11.8410 O      5979 WAT       0.2231
   5980 WAT         4.6590   21.3440   12.0910 O      5980 WAT       0.1424
   5981 WAT         4.6590   21.3440   12.3410 O      5981 WAT       0.0617
   5982 WAT         4.6590   21.5940   11.0910 O      5982 WAT       0.0674
   5983 WAT         4.6590   21.5940   11.3410 O      5983 WAT       0.1229
   5984 WAT         4.6590   21.5940   11.5910 O      5984 WAT       0.1669
   5985 WAT         4.6590   21.5940   11.8410 O      5985 WAT       0.1593
   5986 WAT         4.6590   21.5940   12.0910 O      5986 WAT       0.1041
   5987 WAT         4.6590   21.5940   12.3410 O      5987 WAT       0.0458
   5988 WAT         4.6590   21.8440   11.3410 O      5988 WAT       0.0562
   5989 WAT         4.6590   21.8440   11.5910 O      5989 WAT       0.0779
   5990 WAT         4.6590   21.8440   11.8410 O      5990 WAT       0.0758
   5991 WAT         4.6590   21.8440   12.0910 O      5991 WAT       0.0503
   5992 WAT         4.6590   22.3440    8.5910 O      5992 WAT       0.0468
   5993 WAT         4.6590   22.3440    8.8410 O      5993 WAT       0.0489
   5994 WAT         4.6590   22.5940    8.3410 O      5994 WAT       0.0481
   5995 WAT         4.6590   22.5940    8.5910 O      5995 WAT       0.0615
   5996 WAT         4.6590   22.5940    8.8410 O      5996 WAT       0.0657
   5997 WAT         4.6590   22.5940    9.0910 O      5997 WAT       0.0559
   5998 WAT         4.6590   22.8440    8.5910 O      5998 WAT       0.0581
   5999 WAT         4.6590   22.8440    8.8410 O      5999 WAT       0.0646
   6000 WAT         4.6590   22.8440    9.0910 O      6000 WAT       0.0553
   6001 WAT         4.6590   23.0940    5.5910 O      6001 WAT       0.0466
   6002 WAT         4.6590   23.3440    5.0910 O      6002 WAT       0.0572
   6003 WAT         4.6590   23.3440    5.3410 O      6003 WAT       0.0729
   6004 WAT         4.6590   23.3440    5.5910 O      6004 WAT       0.0690
   6005 WAT         4.6590   23.3440    5.8410 O      6005 WAT       0.0487
   6006 WAT         4.6590   23.5940    4.8410 O      6006 WAT       0.0613
   6007 WAT         4.6590   23.5940    5.0910 O      6007 WAT       0.0927
   6008 WAT         4.6590   23.5940    5.3410 O      6008 WAT       0.1028
   6009 WAT         4.6590   23.5940    5.5910 O      6009 WAT       0.0837
   6010 WAT         4.6590   23.5940    5.8410 O      6010 WAT       0.0503
   6011 WAT         4.6590   23.8440    4.5910 O      6011 WAT       0.0496
   6012 WAT         4.6590   23.8440    4.8410 O      6012 WAT       0.0914
   6013 WAT         4.6590   23.8440    5.0910 O      6013 WAT       0.1227
   6014 WAT         4.6590   23.8440    5.3410 O      6014 WAT       0.1190
   6015 WAT         4.6590   23.8440    5.5910 O      6015 WAT       0.0836
   6016 WAT         4.6590   24.0940    4.5910 O      6016 WAT       0.0671
   6017 WAT         4.6590   24.0940    4.8410 O      6017 WAT       0.1110
   6018 WAT         4.6590   24.0940    5.0910 O      6018 WAT       0.1323
   6019 WAT         4.6590   24.0940    5.3410 O      6019 WAT       0.1126
   6020 WAT         4.6590   24.0940    5.5910 O      6020 WAT       0.0686
   6021 WAT         4.6590   24.3440    4.5910 O      6021 WAT       0.0739
   6022 WAT         4.6590   24.3440    4.8410 O      6022 WAT       0.1090
   6023 WAT         4.6590   24.3440    5.0910 O      6023 WAT       0.1154
   6024 WAT         4.6590   24.3440    5.3410 O      6024 WAT       0.0865
   6025 WAT         4.6590   24.3440    5.5910 O      6025 WAT       0.0457
   6026 WAT         4.6590   24.5940    4.5910 O      6026 WAT       0.0653
   6027 WAT         4.6590   24.5940    4.8410 O      6027 WAT       0.0855
   6028 WAT         4.6590   24.5940    5.0910 O      6028 WAT       0.0802
   6029 WAT         4.6590   24.5940    5.3410 O      6029 WAT       0.0529
   6030 WAT         4.6590   24.8440    4.5910 O      6030 WAT       0.0458
   6031 WAT         4.6590   24.8440    4.8410 O      6031 WAT       0.0526
   6032 WAT         4.6590   25.0940    3.0910 O      6032 WAT       0.0458
   6033 WAT         4.6590   25.3440    2.8410 O      6033 WAT       0.0452
   6034 WAT         4.6590   25.3440    3.0910 O      6034 WAT       0.0510
   6035 WAT         4.6590   25.3440    3.3410 O      6035 WAT       0.0494
   6036 WAT         4.6590   25.5940    2.8410 O      6036 WAT       0.0491
   6037 WAT         4.6590   25.5940    3.0910 O      6037 WAT       0.0554
   6038 WAT         4.6590   25.5940    3.3410 O      6038 WAT       0.0525
   6039 WAT         4.6590   25.8440    2.8410 O      6039 WAT       0.0520
   6040 WAT         4.6590   25.8440    3.0910 O      6040 WAT       0.0575
   6041 WAT         4.6590   25.8440    3.3410 O      6041 WAT       0.0524
   6042 WAT         4.6590   26.0940    2.8410 O      6042 WAT       0.0531
   6043 WAT         4.6590   26.0940    3.0910 O      6043 WAT       0.0562
   6044 WAT         4.6590   26.0940    3.3410 O      6044 WAT       0.0483
   6045 WAT         4.6590   26.3440    2.5910 O      6045 WAT       0.0454
   6046 WAT         4.6590   26.3440    2.8410 O      6046 WAT       0.0532
   6047 WAT         4.6590   26.3440    3.0910 O      6047 WAT       0.0521
   6048 WAT         4.6590   26.5940    2.5910 O      6048 WAT       0.0490
   6049 WAT         4.6590   26.5940    2.8410 O      6049 WAT       0.0530
   6050 WAT         4.6590   26.5940    3.0910 O      6050 WAT       0.0471
   6051 WAT         4.6590   26.8440    2.5910 O      6051 WAT       0.0530
   6052 WAT         4.6590   26.8440    2.8410 O      6052 WAT       0.0528
   6053 WAT         4.6590   27.0940    2.5910 O      6053 WAT       0.0566
   6054 WAT         4.6590   27.0940    2.8410 O      6054 WAT       0.0526
   6055 WAT         4.6590   27.3440    2.5910 O      6055 WAT       0.0588
   6056 WAT         4.6590   27.3440    2.8410 O      6056 WAT       0.0523
   6057 WAT         4.6590   27.5940    2.5910 O      6057 WAT       0.0591
   6058 WAT         4.6590   27.5940    2.8410 O      6058 WAT       0.0518
   6059 WAT         4.6590   27.8440    2.5910 O      6059 WAT       0.0580
   6060 WAT         4.6590   27.8440    2.8410 O      6060 WAT       0.0511
   6061 WAT         4.6590   28.0940    2.5910 O      6061 WAT       0.0564
   6062 WAT         4.6590   28.0940    2.8410 O      6062 WAT       0.0497
   6063 WAT         4.6590   28.3440    2.5910 O      6063 WAT       0.0542
   6064 WAT         4.6590   28.3440    2.8410 O      6064 WAT       0.0469
   6065 WAT         4.6590   28.5940    2.5910 O      6065 WAT       0.0498
   6066 WAT         4.9090    8.3440   25.0910 O      6066 WAT       0.0465
   6067 WAT         4.9090    8.3440   25.3410 O      6067 WAT       0.0655
   6068 WAT         4.9090    8.3440   25.5910 O      6068 WAT       0.0773
   6069 WAT         4.9090    8.3440   25.8410 O      6069 WAT       0.0733
   6070 WAT         4.9090    8.3440   26.0910 O      6070 WAT       0.0548
   6071 WAT         4.9090    8.5940   25.0910 O      6071 WAT       0.0451
   6072 WAT         4.9090    8.5940   25.3410 O      6072 WAT       0.0561
   6073 WAT         4.9090    8.5940   25.5910 O      6073 WAT       0.0595
   6074 WAT         4.9090    8.5940   25.8410 O      6074 WAT       0.0526
   6075 WAT         4.9090    8.8440   25.3410 O      6075 WAT       0.0458
   6076 WAT         4.9090   11.0940   25.3410 O      6076 WAT       0.0485
   6077 WAT         4.9090   11.0940   25.5910 O      6077 WAT       0.0474
   6078 WAT         4.9090   11.3440   25.0910 O      6078 WAT       0.0519
   6079 WAT         4.9090   11.3440   25.3410 O      6079 WAT       0.0632
   6080 WAT         4.9090   11.3440   25.5910 O      6080 WAT       0.0671
   6081 WAT         4.9090   11.3440   25.8410 O      6081 WAT       0.0596
   6082 WAT         4.9090   11.5940   25.0910 O      6082 WAT       0.0596
   6083 WAT         4.9090   11.5940   25.3410 O      6083 WAT       0.0770
   6084 WAT         4.9090   11.5940   25.5910 O      6084 WAT       0.0876
   6085 WAT         4.9090   11.5940   25.8410 O      6085 WAT       0.0840
   6086 WAT         4.9090   11.5940   26.0910 O      6086 WAT       0.0661
   6087 WAT         4.9090   11.8440   24.8410 O      6087 WAT       0.0454
   6088 WAT         4.9090   11.8440   25.0910 O      6088 WAT       0.0630
   6089 WAT         4.9090   11.8440   25.3410 O      6089 WAT       0.0839
   6090 WAT         4.9090   11.8440   25.5910 O      6090 WAT       0.1006
   6091 WAT         4.9090   11.8440   25.8410 O      6091 WAT       0.1028
   6092 WAT         4.9090   11.8440   26.0910 O      6092 WAT       0.0870
   6093 WAT         4.9090   11.8440   26.3410 O      6093 WAT       0.0605
   6094 WAT         4.9090   12.0940   24.8410 O      6094 WAT       0.0451
   6095 WAT         4.9090   12.0940   25.0910 O      6095 WAT       0.0612
   6096 WAT         4.9090   12.0940   25.3410 O      6096 WAT       0.0817
   6097 WAT         4.9090   12.0940   25.5910 O      6097 WAT       0.1011
   6098 WAT         4.9090   12.0940   25.8410 O      6098 WAT       0.1089
   6099 WAT         4.9090   12.0940   26.0910 O      6099 WAT       0.0985
   6100 WAT         4.9090   12.0940   26.3410 O      6100 WAT       0.0738
   6101 WAT         4.9090   12.0940   26.5910 O      6101 WAT       0.0464
   6102 WAT         4.9090   12.3440   25.0910 O      6102 WAT       0.0557
   6103 WAT         4.9090   12.3440   25.3410 O      6103 WAT       0.0726
   6104 WAT         4.9090   12.3440   25.5910 O      6104 WAT       0.0906
   6105 WAT         4.9090   12.3440   25.8410 O      6105 WAT       0.1016
   6106 WAT         4.9090   12.3440   26.0910 O      6106 WAT       0.0974
   6107 WAT         4.9090   12.3440   26.3410 O      6107 WAT       0.0782
   6108 WAT         4.9090   12.3440   26.5910 O      6108 WAT       0.0529
   6109 WAT         4.9090   12.5940   25.0910 O      6109 WAT       0.0488
   6110 WAT         4.9090   12.5940   25.3410 O      6110 WAT       0.0609
   6111 WAT         4.9090   12.5940   25.5910 O      6111 WAT       0.0747
   6112 WAT         4.9090   12.5940   25.8410 O      6112 WAT       0.0850
   6113 WAT         4.9090   12.5940   26.0910 O      6113 WAT       0.0851
   6114 WAT         4.9090   12.5940   26.3410 O      6114 WAT       0.0724
   6115 WAT         4.9090   12.5940   26.5910 O      6115 WAT       0.0521
   6116 WAT         4.9090   12.8440   25.3410 O      6116 WAT       0.0499
   6117 WAT         4.9090   12.8440   25.5910 O      6117 WAT       0.0583
   6118 WAT         4.9090   12.8440   25.8410 O      6118 WAT       0.0649
   6119 WAT         4.9090   12.8440   26.0910 O      6119 WAT       0.0657
   6120 WAT         4.9090   12.8440   26.3410 O      6120 WAT       0.0579
   6121 WAT         4.9090   13.0940   25.8410 O      6121 WAT       0.0464
   6122 WAT         4.9090   13.0940   26.0910 O      6122 WAT       0.0455
   6123 WAT         4.9090   14.0940   25.5910 O      6123 WAT       0.0468
   6124 WAT         4.9090   14.0940   25.8410 O      6124 WAT       0.0517
   6125 WAT         4.9090   14.0940   26.0910 O      6125 WAT       0.0485
   6126 WAT         4.9090   14.3440   25.5910 O      6126 WAT       0.0592
   6127 WAT         4.9090   14.3440   25.8410 O      6127 WAT       0.0692
   6128 WAT         4.9090   14.3440   26.0910 O      6128 WAT       0.0690
   6129 WAT         4.9090   14.3440   26.3410 O      6129 WAT       0.0588
   6130 WAT         4.9090   14.5940   25.3410 O      6130 WAT       0.0480
   6131 WAT         4.9090   14.5940   25.5910 O      6131 WAT       0.0683
   6132 WAT         4.9090   14.5940   25.8410 O      6132 WAT       0.0849
   6133 WAT         4.9090   14.5940   26.0910 O      6133 WAT       0.0918
   6134 WAT         4.9090   14.5940   26.3410 O      6134 WAT       0.0862
   6135 WAT         4.9090   14.5940   26.5910 O      6135 WAT       0.0683
   6136 WAT         4.9090   14.8440   25.3410 O      6136 WAT       0.0483
   6137 WAT         4.9090   14.8440   25.5910 O      6137 WAT       0.0717
   6138 WAT         4.9090   14.8440   25.8410 O      6138 WAT       0.0953
   6139 WAT         4.9090   14.8440   26.0910 O      6139 WAT       0.1136
   6140 WAT         4.9090   14.8440   26.3410 O      6140 WAT       0.1196
   6141 WAT         4.9090   14.8440   26.5910 O      6141 WAT       0.1064
   6142 WAT         4.9090   14.8440   26.8410 O      6142 WAT       0.0754
   6143 WAT         4.9090   15.0940   25.3410 O      6143 WAT       0.0460
   6144 WAT         4.9090   15.0940   25.5910 O      6144 WAT       0.0706
   6145 WAT         4.9090   15.0940   25.8410 O      6145 WAT       0.1006
   6146 WAT         4.9090   15.0940   26.0910 O      6146 WAT       0.1325
   6147 WAT         4.9090   15.0940   26.3410 O      6147 WAT       0.1561
   6148 WAT         4.9090   15.0940   26.5910 O      6148 WAT       0.1546
   6149 WAT         4.9090   15.0940   26.8410 O      6149 WAT       0.1206
   6150 WAT         4.9090   15.0940   27.0910 O      6150 WAT       0.0706
   6151 WAT         4.9090   15.3440   25.5910 O      6151 WAT       0.0677
   6152 WAT         4.9090   15.3440   25.8410 O      6152 WAT       0.1019
   6153 WAT         4.9090   15.3440   26.0910 O      6153 WAT       0.1454
   6154 WAT         4.9090   15.3440   26.3410 O      6154 WAT       0.1868
   6155 WAT         4.9090   15.3440   26.5910 O      6155 WAT       0.2006
   6156 WAT         4.9090   15.3440   26.8410 O      6156 WAT       0.1683
   6157 WAT         4.9090   15.3440   27.0910 O      6157 WAT       0.1057
   6158 WAT         4.9090   15.3440   27.3410 O      6158 WAT       0.0484
   6159 WAT         4.9090   15.5940   25.5910 O      6159 WAT       0.0626
   6160 WAT         4.9090   15.5940   25.8410 O      6160 WAT       0.0968
   6161 WAT         4.9090   15.5940   26.0910 O      6161 WAT       0.1440
   6162 WAT         4.9090   15.5940   26.3410 O      6162 WAT       0.1940
   6163 WAT         4.9090   15.5940   26.5910 O      6163 WAT       0.2186
   6164 WAT         4.9090   15.5940   26.8410 O      6164 WAT       0.1930
   6165 WAT         4.9090   15.5940   27.0910 O      6165 WAT       0.1282
   6166 WAT         4.9090   15.5940   27.3410 O      6166 WAT       0.0627
   6167 WAT         4.9090   15.8440   25.5910 O      6167 WAT       0.0530
   6168 WAT         4.9090   15.8440   25.8410 O      6168 WAT       0.0807
   6169 WAT         4.9090   15.8440   26.0910 O      6169 WAT       0.1197
   6170 WAT         4.9090   15.8440   26.3410 O      6170 WAT       0.1630
   6171 WAT         4.9090   15.8440   26.5910 O      6171 WAT       0.1878
   6172 WAT         4.9090   15.8440   26.8410 O      6172 WAT       0.1714
   6173 WAT         4.9090   15.8440   27.0910 O      6173 WAT       0.1191
   6174 WAT         4.9090   15.8440   27.3410 O      6174 WAT       0.0616
   6175 WAT         4.9090   16.0940   25.8410 O      6175 WAT       0.0547
   6176 WAT         4.9090   16.0940   26.0910 O      6176 WAT       0.0778
   6177 WAT         4.9090   16.0940   26.3410 O      6177 WAT       0.1041
   6178 WAT         4.9090   16.0940   26.5910 O      6178 WAT       0.1203
   6179 WAT         4.9090   16.0940   26.8410 O      6179 WAT       0.1120
   6180 WAT         4.9090   16.0940   27.0910 O      6180 WAT       0.0804
   6181 WAT         4.9090   16.0940   28.8410 O      6181 WAT       0.0724
   6182 WAT         4.9090   16.0940   29.0910 O      6182 WAT       0.0974
   6183 WAT         4.9090   16.0940   29.3410 O      6183 WAT       0.0921
   6184 WAT         4.9090   16.0940   29.5910 O      6184 WAT       0.0591
   6185 WAT         4.9090   16.3440   22.5910 O      6185 WAT       0.0457
   6186 WAT         4.9090   16.3440   26.3410 O      6186 WAT       0.0479
   6187 WAT         4.9090   16.3440   26.5910 O      6187 WAT       0.0547
   6188 WAT         4.9090   16.3440   26.8410 O      6188 WAT       0.0513
   6189 WAT         4.9090   16.3440   28.5910 O      6189 WAT       0.0647
   6190 WAT         4.9090   16.3440   28.8410 O      6190 WAT       0.1278
   6191 WAT         4.9090   16.3440   29.0910 O      6191 WAT       0.1834
   6192 WAT         4.9090   16.3440   29.3410 O      6192 WAT       0.1848
   6193 WAT         4.9090   16.3440   29.5910 O      6193 WAT       0.1259
   6194 WAT         4.9090   16.5940   12.3410 O      6194 WAT       0.0498
   6195 WAT         4.9090   16.5940   12.5910 O      6195 WAT       0.0507
   6196 WAT         4.9090   16.5940   12.8410 O      6196 WAT       0.0481
   6197 WAT         4.9090   16.5940   17.8410 O      6197 WAT       0.0483
   6198 WAT         4.9090   16.5940   18.0910 O      6198 WAT       0.0529
   6199 WAT         4.9090   16.5940   18.3410 O      6199 WAT       0.0505
   6200 WAT         4.9090   16.5940   22.5910 O      6200 WAT       0.0465
   6201 WAT         4.9090   16.5940   22.8410 O      6201 WAT       0.0467
   6202 WAT         4.9090   16.5940   28.5910 O      6202 WAT       0.0715
   6203 WAT         4.9090   16.5940   28.8410 O      6203 WAT       0.1527
   6204 WAT         4.9090   16.5940   29.0910 O      6204 WAT       0.2356
   6205 WAT         4.9090   16.5940   29.3410 O      6205 WAT       0.2539
   6206 WAT         4.9090   16.5940   29.5910 O      6206 WAT       0.1835
   6207 WAT         4.9090   16.8440   11.8410 O      6207 WAT       0.0544
   6208 WAT         4.9090   16.8440   12.0910 O      6208 WAT       0.0614
   6209 WAT         4.9090   16.8440   12.3410 O      6209 WAT       0.0601
   6210 WAT         4.9090   16.8440   12.5910 O      6210 WAT       0.0526
   6211 WAT         4.9090   16.8440   17.5910 O      6211 WAT       0.0506
   6212 WAT         4.9090   16.8440   17.8410 O      6212 WAT       0.0694
   6213 WAT         4.9090   16.8440   18.0910 O      6213 WAT       0.0772
   6214 WAT         4.9090   16.8440   18.3410 O      6214 WAT       0.0712
   6215 WAT         4.9090   16.8440   18.5910 O      6215 WAT       0.0573
   6216 WAT         4.9090   16.8440   22.8410 O      6216 WAT       0.0480
   6217 WAT         4.9090   16.8440   23.0910 O      6217 WAT       0.0473
   6218 WAT         4.9090   16.8440   28.5910 O      6218 WAT       0.0532
   6219 WAT         4.9090   16.8440   28.8410 O      6219 WAT       0.1248
   6220 WAT         4.9090   16.8440   29.0910 O      6220 WAT       0.2086
   6221 WAT         4.9090   16.8440   29.3410 O      6221 WAT       0.2408
   6222 WAT         4.9090   16.8440   29.5910 O      6222 WAT       0.1841
   6223 WAT         4.9090   17.0940   11.5910 O      6223 WAT       0.0557
   6224 WAT         4.9090   17.0940   11.8410 O      6224 WAT       0.0640
   6225 WAT         4.9090   17.0940   12.0910 O      6225 WAT       0.0617
   6226 WAT         4.9090   17.0940   12.3410 O      6226 WAT       0.0512
   6227 WAT         4.9090   17.0940   17.5910 O      6227 WAT       0.0631
   6228 WAT         4.9090   17.0940   17.8410 O      6228 WAT       0.0890
   6229 WAT         4.9090   17.0940   18.0910 O      6229 WAT       0.0994
   6230 WAT         4.9090   17.0940   18.3410 O      6230 WAT       0.0895
   6231 WAT         4.9090   17.0940   18.5910 O      6231 WAT       0.0674
   6232 WAT         4.9090   17.0940   18.8410 O      6232 WAT       0.0451
   6233 WAT         4.9090   17.0940   22.8410 O      6233 WAT       0.0503
   6234 WAT         4.9090   17.0940   23.0910 O      6234 WAT       0.0519
   6235 WAT         4.9090   17.0940   23.3410 O      6235 WAT       0.0462
   6236 WAT         4.9090   17.0940   28.8410 O      6236 WAT       0.0707
   6237 WAT         4.9090   17.0940   29.0910 O      6237 WAT       0.1287
   6238 WAT         4.9090   17.0940   29.3410 O      6238 WAT       0.1591
   6239 WAT         4.9090   17.0940   29.5910 O      6239 WAT       0.1281
   6240 WAT         4.9090   17.3440   11.3410 O      6240 WAT       0.0473
   6241 WAT         4.9090   17.3440   11.5910 O      6241 WAT       0.0565
   6242 WAT         4.9090   17.3440   11.8410 O      6242 WAT       0.0556
   6243 WAT         4.9090   17.3440   12.0910 O      6243 WAT       0.0451
   6244 WAT         4.9090   17.3440   17.5910 O      6244 WAT       0.0702
   6245 WAT         4.9090   17.3440   17.8410 O      6245 WAT       0.0998
   6246 WAT         4.9090   17.3440   18.0910 O      6246 WAT       0.1110
   6247 WAT         4.9090   17.3440   18.3410 O      6247 WAT       0.0980
   6248 WAT         4.9090   17.3440   18.5910 O      6248 WAT       0.0707
   6249 WAT         4.9090   17.3440   22.8410 O      6249 WAT       0.0545
   6250 WAT         4.9090   17.3440   23.0910 O      6250 WAT       0.0576
   6251 WAT         4.9090   17.3440   23.3410 O      6251 WAT       0.0488
   6252 WAT         4.9090   17.3440   29.0910 O      6252 WAT       0.0558
   6253 WAT         4.9090   17.3440   29.3410 O      6253 WAT       0.0738
   6254 WAT         4.9090   17.3440   29.5910 O      6254 WAT       0.0622
   6255 WAT         4.9090   17.5940   17.5910 O      6255 WAT       0.0688
   6256 WAT         4.9090   17.5940   17.8410 O      6256 WAT       0.0971
   6257 WAT         4.9090   17.5940   18.0910 O      6257 WAT       0.1068
   6258 WAT         4.9090   17.5940   18.3410 O      6258 WAT       0.0929
   6259 WAT         4.9090   17.5940   18.5910 O      6259 WAT       0.0653
   6260 WAT         4.9090   17.5940   22.8410 O      6260 WAT       0.0581
   6261 WAT         4.9090   17.5940   23.0910 O      6261 WAT       0.0615
   6262 WAT         4.9090   17.5940   23.3410 O      6262 WAT       0.0492
   6263 WAT         4.9090   17.8440   17.5910 O      6263 WAT       0.0599
   6264 WAT         4.9090   17.8440   17.8410 O      6264 WAT       0.0838
   6265 WAT         4.9090   17.8440   18.0910 O      6265 WAT       0.0911
   6266 WAT         4.9090   17.8440   18.3410 O      6266 WAT       0.0782
   6267 WAT         4.9090   17.8440   18.5910 O      6267 WAT       0.0542
   6268 WAT         4.9090   17.8440   22.8410 O      6268 WAT       0.0609
   6269 WAT         4.9090   17.8440   23.0910 O      6269 WAT       0.0625
   6270 WAT         4.9090   17.8440   23.3410 O      6270 WAT       0.0471
   6271 WAT         4.9090   18.0940   17.5910 O      6271 WAT       0.0486
   6272 WAT         4.9090   18.0940   17.8410 O      6272 WAT       0.0672
   6273 WAT         4.9090   18.0940   18.0910 O      6273 WAT       0.0720
   6274 WAT         4.9090   18.0940   18.3410 O      6274 WAT       0.0611
   6275 WAT         4.9090   18.0940   22.5910 O      6275 WAT       0.0528
   6276 WAT         4.9090   18.0940   22.8410 O      6276 WAT       0.0682
   6277 WAT         4.9090   18.0940   23.0910 O      6277 WAT       0.0661
   6278 WAT         4.9090   18.0940   23.3410 O      6278 WAT       0.0467
   6279 WAT         4.9090   18.3440   17.8410 O      6279 WAT       0.0515
   6280 WAT         4.9090   18.3440   18.0910 O      6280 WAT       0.0542
   6281 WAT         4.9090   18.3440   18.3410 O      6281 WAT       0.0451
   6282 WAT         4.9090   18.3440   22.5910 O      6282 WAT       0.0694
   6283 WAT         4.9090   18.3440   22.8410 O      6283 WAT       0.0840
   6284 WAT         4.9090   18.3440   23.0910 O      6284 WAT       0.0767
   6285 WAT         4.9090   18.3440   23.3410 O      6285 WAT       0.0513
   6286 WAT         4.9090   18.5940   22.3410 O      6286 WAT       0.0586
   6287 WAT         4.9090   18.5940   22.5910 O      6287 WAT       0.0874
   6288 WAT         4.9090   18.5940   22.8410 O      6288 WAT       0.1009
   6289 WAT         4.9090   18.5940   23.0910 O      6289 WAT       0.0887
   6290 WAT         4.9090   18.5940   23.3410 O      6290 WAT       0.0576
   6291 WAT         4.9090   18.8440   22.3410 O      6291 WAT       0.0680
   6292 WAT         4.9090   18.8440   22.5910 O      6292 WAT       0.0969
   6293 WAT         4.9090   18.8440   22.8410 O      6293 WAT       0.1082
   6294 WAT         4.9090   18.8440   23.0910 O      6294 WAT       0.0931
   6295 WAT         4.9090   18.8440   23.3410 O      6295 WAT       0.0599
   6296 WAT         4.9090   19.0940   22.3410 O      6296 WAT       0.0703
   6297 WAT         4.9090   19.0940   22.5910 O      6297 WAT       0.0959
   6298 WAT         4.9090   19.0940   22.8410 O      6298 WAT       0.1048
   6299 WAT         4.9090   19.0940   23.0910 O      6299 WAT       0.0896
   6300 WAT         4.9090   19.0940   23.3410 O      6300 WAT       0.0579
   6301 WAT         4.9090   19.3440   22.3410 O      6301 WAT       0.0693
   6302 WAT         4.9090   19.3440   22.5910 O      6302 WAT       0.0914
   6303 WAT         4.9090   19.3440   22.8410 O      6303 WAT       0.0981
   6304 WAT         4.9090   19.3440   23.0910 O      6304 WAT       0.0840
   6305 WAT         4.9090   19.3440   23.3410 O      6305 WAT       0.0550
   6306 WAT         4.9090   19.5940   22.3410 O      6306 WAT       0.0684
   6307 WAT         4.9090   19.5940   22.5910 O      6307 WAT       0.0889
   6308 WAT         4.9090   19.5940   22.8410 O      6308 WAT       0.0946
   6309 WAT         4.9090   19.5940   23.0910 O      6309 WAT       0.0809
   6310 WAT         4.9090   19.5940   23.3410 O      6310 WAT       0.0533
   6311 WAT         4.9090   19.8440   22.3410 O      6311 WAT       0.0664
   6312 WAT         4.9090   19.8440   22.5910 O      6312 WAT       0.0873
   6313 WAT         4.9090   19.8440   22.8410 O      6313 WAT       0.0931
   6314 WAT         4.9090   19.8440   23.0910 O      6314 WAT       0.0794
   6315 WAT         4.9090   19.8440   23.3410 O      6315 WAT       0.0519
   6316 WAT         4.9090   20.0940   22.3410 O      6316 WAT       0.0578
   6317 WAT         4.9090   20.0940   22.5910 O      6317 WAT       0.0789
   6318 WAT         4.9090   20.0940   22.8410 O      6318 WAT       0.0859
   6319 WAT         4.9090   20.0940   23.0910 O      6319 WAT       0.0733
   6320 WAT         4.9090   20.0940   23.3410 O      6320 WAT       0.0474
   6321 WAT         4.9090   20.3440   22.5910 O      6321 WAT       0.0584
   6322 WAT         4.9090   20.3440   22.8410 O      6322 WAT       0.0658
   6323 WAT         4.9090   20.3440   23.0910 O      6323 WAT       0.0571
   6324 WAT         4.9090   20.5940   11.0910 O      6324 WAT       0.0507
   6325 WAT         4.9090   20.5940   11.3410 O      6325 WAT       0.0700
   6326 WAT         4.9090   20.5940   11.5910 O      6326 WAT       0.0713
   6327 WAT         4.9090   20.5940   11.8410 O      6327 WAT       0.0514
   6328 WAT         4.9090   20.8440   10.8410 O      6328 WAT       0.0479
   6329 WAT         4.9090   20.8440   11.0910 O      6329 WAT       0.0936
   6330 WAT         4.9090   20.8440   11.3410 O      6330 WAT       0.1423
   6331 WAT         4.9090   20.8440   11.5910 O      6331 WAT       0.1576
   6332 WAT         4.9090   20.8440   11.8410 O      6332 WAT       0.1223
   6333 WAT         4.9090   20.8440   12.0910 O      6333 WAT       0.0647
   6334 WAT         4.9090   21.0940   10.8410 O      6334 WAT       0.0616
   6335 WAT         4.9090   21.0940   11.0910 O      6335 WAT       0.1287
   6336 WAT         4.9090   21.0940   11.3410 O      6336 WAT       0.2098
   6337 WAT         4.9090   21.0940   11.5910 O      6337 WAT       0.2474
   6338 WAT         4.9090   21.0940   11.8410 O      6338 WAT       0.2027
   6339 WAT         4.9090   21.0940   12.0910 O      6339 WAT       0.1126
   6340 WAT         4.9090   21.3440   10.8410 O      6340 WAT       0.0588
   6341 WAT         4.9090   21.3440   11.0910 O      6341 WAT       0.1275
   6342 WAT         4.9090   21.3440   11.3410 O      6342 WAT       0.2184
   6343 WAT         4.9090   21.3440   11.5910 O      6343 WAT       0.2704
   6344 WAT         4.9090   21.3440   11.8410 O      6344 WAT       0.2313
   6345 WAT         4.9090   21.3440   12.0910 O      6345 WAT       0.1333
   6346 WAT         4.9090   21.3440   12.3410 O      6346 WAT       0.0506
   6347 WAT         4.9090   21.5940   11.0910 O      6347 WAT       0.0887
   6348 WAT         4.9090   21.5940   11.3410 O      6348 WAT       0.1572
   6349 WAT         4.9090   21.5940   11.5910 O      6349 WAT       0.2020
   6350 WAT         4.9090   21.5940   11.8410 O      6350 WAT       0.1789
   6351 WAT         4.9090   21.5940   12.0910 O      6351 WAT       0.1062
   6352 WAT         4.9090   21.8440   11.3410 O      6352 WAT       0.0766
   6353 WAT         4.9090   21.8440   11.5910 O      6353 WAT       0.1014
   6354 WAT         4.9090   21.8440   11.8410 O      6354 WAT       0.0923
   6355 WAT         4.9090   21.8440   12.0910 O      6355 WAT       0.0559
   6356 WAT         4.9090   22.5940    8.5910 O      6356 WAT       0.0533
   6357 WAT         4.9090   22.5940    8.8410 O      6357 WAT       0.0582
   6358 WAT         4.9090   22.5940    9.0910 O      6358 WAT       0.0511
   6359 WAT         4.9090   22.8440    8.5910 O      6359 WAT       0.0577
   6360 WAT         4.9090   22.8440    8.8410 O      6360 WAT       0.0650
   6361 WAT         4.9090   22.8440    9.0910 O      6361 WAT       0.0570
   6362 WAT         4.9090   23.0940    8.8410 O      6362 WAT       0.0520
   6363 WAT         4.9090   23.0940    9.0910 O      6363 WAT       0.0467
   6364 WAT         4.9090   23.3440    5.0910 O      6364 WAT       0.0519
   6365 WAT         4.9090   23.3440    5.3410 O      6365 WAT       0.0690
   6366 WAT         4.9090   23.3440    5.5910 O      6366 WAT       0.0689
   6367 WAT         4.9090   23.3440    5.8410 O      6367 WAT       0.0521
   6368 WAT         4.9090   23.5940    4.8410 O      6368 WAT       0.0553
   6369 WAT         4.9090   23.5940    5.0910 O      6369 WAT       0.0873
   6370 WAT         4.9090   23.5940    5.3410 O      6370 WAT       0.1020
   6371 WAT         4.9090   23.5940    5.5910 O      6371 WAT       0.0883
   6372 WAT         4.9090   23.5940    5.8410 O      6372 WAT       0.0574
   6373 WAT         4.9090   23.8440    4.8410 O      6373 WAT       0.0842
   6374 WAT         4.9090   23.8440    5.0910 O      6374 WAT       0.1188
   6375 WAT         4.9090   23.8440    5.3410 O      6375 WAT       0.1223
   6376 WAT         4.9090   23.8440    5.5910 O      6376 WAT       0.0923
   6377 WAT         4.9090   23.8440    5.8410 O      6377 WAT       0.0517
   6378 WAT         4.9090   24.0940    4.5910 O      6378 WAT       0.0601
   6379 WAT         4.9090   24.0940    4.8410 O      6379 WAT       0.1028
   6380 WAT         4.9090   24.0940    5.0910 O      6380 WAT       0.1294
   6381 WAT         4.9090   24.0940    5.3410 O      6381 WAT       0.1178
   6382 WAT         4.9090   24.0940    5.5910 O      6382 WAT       0.0778
   6383 WAT         4.9090   24.3440    4.5910 O      6383 WAT       0.0656
   6384 WAT         4.9090   24.3440    4.8410 O      6384 WAT       0.0999
   6385 WAT         4.9090   24.3440    5.0910 O      6385 WAT       0.1117
   6386 WAT         4.9090   24.3440    5.3410 O      6386 WAT       0.0899
   6387 WAT         4.9090   24.3440    5.5910 O      6387 WAT       0.0519
   6388 WAT         4.9090   24.5940    4.5910 O      6388 WAT       0.0564
   6389 WAT         4.9090   24.5940    4.8410 O      6389 WAT       0.0760
   6390 WAT         4.9090   24.5940    5.0910 O      6390 WAT       0.0751
   6391 WAT         4.9090   24.5940    5.3410 O      6391 WAT       0.0532
   6392 WAT         4.9090   25.3440    3.0910 O      6392 WAT       0.0480
   6393 WAT         4.9090   25.3440    3.3410 O      6393 WAT       0.0471
   6394 WAT         4.9090   25.5940    2.8410 O      6394 WAT       0.0454
   6395 WAT         4.9090   25.5940    3.0910 O      6395 WAT       0.0515
   6396 WAT         4.9090   25.5940    3.3410 O      6396 WAT       0.0490
   6397 WAT         4.9090   25.8440    2.8410 O      6397 WAT       0.0481
   6398 WAT         4.9090   25.8440    3.0910 O      6398 WAT       0.0533
   6399 WAT         4.9090   25.8440    3.3410 O      6399 WAT       0.0484
   6400 WAT         4.9090   26.0940    2.8410 O      6400 WAT       0.0495
   6401 WAT         4.9090   26.0940    3.0910 O      6401 WAT       0.0524
   6402 WAT         4.9090   26.3440    2.8410 O      6402 WAT       0.0506
   6403 WAT         4.9090   26.3440    3.0910 O      6403 WAT       0.0494
   6404 WAT         4.9090   26.5940    2.5910 O      6404 WAT       0.0479
   6405 WAT         4.9090   26.5940    2.8410 O      6405 WAT       0.0516
   6406 WAT         4.9090   26.5940    3.0910 O      6406 WAT       0.0455
   6407 WAT         4.9090   26.8440    2.5910 O      6407 WAT       0.0529
   6408 WAT         4.9090   26.8440    2.8410 O      6408 WAT       0.0520
   6409 WAT         4.9090   27.0940    2.5910 O      6409 WAT       0.0564
   6410 WAT         4.9090   27.0940    2.8410 O      6410 WAT       0.0509
   6411 WAT         4.9090   27.3440    2.5910 O      6411 WAT       0.0559
   6412 WAT         4.9090   27.3440    2.8410 O      6412 WAT       0.0474
   6413 WAT         4.9090   27.5940    2.5910 O      6413 WAT       0.0508
   6414 WAT         5.1590   11.3440   25.3410 O      6414 WAT       0.0503
   6415 WAT         5.1590   11.3440   25.5910 O      6415 WAT       0.0521
   6416 WAT         5.1590   11.3440   25.8410 O      6416 WAT       0.0453
   6417 WAT         5.1590   11.5940   25.0910 O      6417 WAT       0.0485
   6418 WAT         5.1590   11.5940   25.3410 O      6418 WAT       0.0626
   6419 WAT         5.1590   11.5940   25.5910 O      6419 WAT       0.0707
   6420 WAT         5.1590   11.5940   25.8410 O      6420 WAT       0.0668
   6421 WAT         5.1590   11.5940   26.0910 O      6421 WAT       0.0515
   6422 WAT         5.1590   11.8440   25.0910 O      6422 WAT       0.0511
   6423 WAT         5.1590   11.8440   25.3410 O      6423 WAT       0.0689
   6424 WAT         5.1590   11.8440   25.5910 O      6424 WAT       0.0825
   6425 WAT         5.1590   11.8440   25.8410 O      6425 WAT       0.0834
   6426 WAT         5.1590   11.8440   26.0910 O      6426 WAT       0.0690
   6427 WAT         5.1590   11.8440   26.3410 O      6427 WAT       0.0462
   6428 WAT         5.1590   12.0940   25.0910 O      6428 WAT       0.0497
   6429 WAT         5.1590   12.0940   25.3410 O      6429 WAT       0.0678
   6430 WAT         5.1590   12.0940   25.5910 O      6430 WAT       0.0841
   6431 WAT         5.1590   12.0940   25.8410 O      6431 WAT       0.0894
   6432 WAT         5.1590   12.0940   26.0910 O      6432 WAT       0.0787
   6433 WAT         5.1590   12.0940   26.3410 O      6433 WAT       0.0566
   6434 WAT         5.1590   12.3440   25.0910 O      6434 WAT       0.0460
   6435 WAT         5.1590   12.3440   25.3410 O      6435 WAT       0.0618
   6436 WAT         5.1590   12.3440   25.5910 O      6436 WAT       0.0773
   6437 WAT         5.1590   12.3440   25.8410 O      6437 WAT       0.0849
   6438 WAT         5.1590   12.3440   26.0910 O      6438 WAT       0.0787
   6439 WAT         5.1590   12.3440   26.3410 O      6439 WAT       0.0602
   6440 WAT         5.1590   12.5940   25.3410 O      6440 WAT       0.0544
   6441 WAT         5.1590   12.5940   25.5910 O      6441 WAT       0.0667
   6442 WAT         5.1590   12.5940   25.8410 O      6442 WAT       0.0737
   6443 WAT         5.1590   12.5940   26.0910 O      6443 WAT       0.0702
   6444 WAT         5.1590   12.5940   26.3410 O      6444 WAT       0.0561
   6445 WAT         5.1590   12.8440   25.3410 O      6445 WAT       0.0474
   6446 WAT         5.1590   12.8440   25.5910 O      6446 WAT       0.0557
   6447 WAT         5.1590   12.8440   25.8410 O      6447 WAT       0.0598
   6448 WAT         5.1590   12.8440   26.0910 O      6448 WAT       0.0566
   6449 WAT         5.1590   12.8440   26.3410 O      6449 WAT       0.0458
   6450 WAT         5.1590   13.0940   25.5910 O      6450 WAT       0.0461
   6451 WAT         5.1590   13.0940   25.8410 O      6451 WAT       0.0470
   6452 WAT         5.1590   14.0940   25.5910 O      6452 WAT       0.0477
   6453 WAT         5.1590   14.0940   25.8410 O      6453 WAT       0.0530
   6454 WAT         5.1590   14.0940   26.0910 O      6454 WAT       0.0489
   6455 WAT         5.1590   14.3440   25.5910 O      6455 WAT       0.0530
   6456 WAT         5.1590   14.3440   25.8410 O      6456 WAT       0.0623
   6457 WAT         5.1590   14.3440   26.0910 O      6457 WAT       0.0616
   6458 WAT         5.1590   14.3440   26.3410 O      6458 WAT       0.0508
   6459 WAT         5.1590   14.5940   25.5910 O      6459 WAT       0.0541
   6460 WAT         5.1590   14.5940   25.8410 O      6460 WAT       0.0678
   6461 WAT         5.1590   14.5940   26.0910 O      6461 WAT       0.0733
   6462 WAT         5.1590   14.5940   26.3410 O      6462 WAT       0.0676
   6463 WAT         5.1590   14.5940   26.5910 O      6463 WAT       0.0517
   6464 WAT         5.1590   14.8440   25.5910 O      6464 WAT       0.0512
   6465 WAT         5.1590   14.8440   25.8410 O      6465 WAT       0.0692
   6466 WAT         5.1590   14.8440   26.0910 O      6466 WAT       0.0833
   6467 WAT         5.1590   14.8440   26.3410 O      6467 WAT       0.0873
   6468 WAT         5.1590   14.8440   26.5910 O      6468 WAT       0.0762
   6469 WAT         5.1590   14.8440   26.8410 O      6469 WAT       0.0523
   6470 WAT         5.1590   15.0940   25.5910 O      6470 WAT       0.0469
   6471 WAT         5.1590   15.0940   25.8410 O      6471 WAT       0.0684
   6472 WAT         5.1590   15.0940   26.0910 O      6472 WAT       0.0917
   6473 WAT         5.1590   15.0940   26.3410 O      6473 WAT       0.1088
   6474 WAT         5.1590   15.0940   26.5910 O      6474 WAT       0.1070
   6475 WAT         5.1590   15.0940   26.8410 O      6475 WAT       0.0818
   6476 WAT         5.1590   15.0940   27.0910 O      6476 WAT       0.0463
   6477 WAT         5.1590   15.3440   25.8410 O      6477 WAT       0.0667
   6478 WAT         5.1590   15.3440   26.0910 O      6478 WAT       0.0973
   6479 WAT         5.1590   15.3440   26.3410 O      6479 WAT       0.1266
   6480 WAT         5.1590   15.3440   26.5910 O      6480 WAT       0.1363
   6481 WAT         5.1590   15.3440   26.8410 O      6481 WAT       0.1132
   6482 WAT         5.1590   15.3440   27.0910 O      6482 WAT       0.0694
   6483 WAT         5.1590   15.5940   22.3410 O      6483 WAT       0.0454
   6484 WAT         5.1590   15.5940   25.8410 O      6484 WAT       0.0624
   6485 WAT         5.1590   15.5940   26.0910 O      6485 WAT       0.0948
   6486 WAT         5.1590   15.5940   26.3410 O      6486 WAT       0.1297
   6487 WAT         5.1590   15.5940   26.5910 O      6487 WAT       0.1472
   6488 WAT         5.1590   15.5940   26.8410 O      6488 WAT       0.1295
   6489 WAT         5.1590   15.5940   27.0910 O      6489 WAT       0.0847
   6490 WAT         5.1590   15.8440   21.8410 O      6490 WAT       0.0464
   6491 WAT         5.1590   15.8440   22.0910 O      6491 WAT       0.0570
   6492 WAT         5.1590   15.8440   22.3410 O      6492 WAT       0.0617
   6493 WAT         5.1590   15.8440   22.5910 O      6493 WAT       0.0587
   6494 WAT         5.1590   15.8440   22.8410 O      6494 WAT       0.0494
   6495 WAT         5.1590   15.8440   25.8410 O      6495 WAT       0.0517
   6496 WAT         5.1590   15.8440   26.0910 O      6496 WAT       0.0780
   6497 WAT         5.1590   15.8440   26.3410 O      6497 WAT       0.1081
   6498 WAT         5.1590   15.8440   26.5910 O      6498 WAT       0.1257
   6499 WAT         5.1590   15.8440   26.8410 O      6499 WAT       0.1149
   6500 WAT         5.1590   15.8440   27.0910 O      6500 WAT       0.0791
   6501 WAT         5.1590   16.0940   21.8410 O      6501 WAT       0.0565
   6502 WAT         5.1590   16.0940   22.0910 O      6502 WAT       0.0694
   6503 WAT         5.1590   16.0940   22.3410 O      6503 WAT       0.0749
   6504 WAT         5.1590   16.0940   22.5910 O      6504 WAT       0.0714
   6505 WAT         5.1590   16.0940   22.8410 O      6505 WAT       0.0610
   6506 WAT         5.1590   16.0940   23.0910 O      6506 WAT       0.0478
   6507 WAT         5.1590   16.0940   26.0910 O      6507 WAT       0.0501
   6508 WAT         5.1590   16.0940   26.3410 O      6508 WAT       0.0682
   6509 WAT         5.1590   16.0940   26.5910 O      6509 WAT       0.0798
   6510 WAT         5.1590   16.0940   26.8410 O      6510 WAT       0.0747
   6511 WAT         5.1590   16.0940   27.0910 O      6511 WAT       0.0535
   6512 WAT         5.1590   16.3440   12.5910 O      6512 WAT       0.0518
   6513 WAT         5.1590   16.3440   12.8410 O      6513 WAT       0.0577
   6514 WAT         5.1590   16.3440   13.0910 O      6514 WAT       0.0598
   6515 WAT         5.1590   16.3440   13.3410 O      6515 WAT       0.0554
   6516 WAT         5.1590   16.3440   18.3410 O      6516 WAT       0.0466
   6517 WAT         5.1590   16.3440   18.5910 O      6517 WAT       0.0475
   6518 WAT         5.1590   16.3440   18.8410 O      6518 WAT       0.0464
   6519 WAT         5.1590   16.3440   21.8410 O      6519 WAT       0.0588
   6520 WAT         5.1590   16.3440   22.0910 O      6520 WAT       0.0737
   6521 WAT         5.1590   16.3440   22.3410 O      6521 WAT       0.0808
   6522 WAT         5.1590   16.3440   22.5910 O      6522 WAT       0.0787
   6523 WAT         5.1590   16.3440   22.8410 O      6523 WAT       0.0696
   6524 WAT         5.1590   16.3440   23.0910 O      6524 WAT       0.0578
   6525 WAT         5.1590   16.3440   23.3410 O      6525 WAT       0.0473
   6526 WAT         5.1590   16.3440   28.8410 O      6526 WAT       0.0501
   6527 WAT         5.1590   16.3440   29.0910 O      6527 WAT       0.0714
   6528 WAT         5.1590   16.3440   29.3410 O      6528 WAT       0.0706
   6529 WAT         5.1590   16.3440   29.5910 O      6529 WAT       0.0467
   6530 WAT         5.1590   16.5940   11.8410 O      6530 WAT       0.0485
   6531 WAT         5.1590   16.5940   12.0910 O      6531 WAT       0.0626
   6532 WAT         5.1590   16.5940   12.3410 O      6532 WAT       0.0713
   6533 WAT         5.1590   16.5940   12.5910 O      6533 WAT       0.0737
   6534 WAT         5.1590   16.5940   12.8410 O      6534 WAT       0.0712
   6535 WAT         5.1590   16.5940   13.0910 O      6535 WAT       0.0642
   6536 WAT         5.1590   16.5940   13.3410 O      6536 WAT       0.0520
   6537 WAT         5.1590   16.5940   17.8410 O      6537 WAT       0.0569
   6538 WAT         5.1590   16.5940   18.0910 O      6538 WAT       0.0657
   6539 WAT         5.1590   16.5940   18.3410 O      6539 WAT       0.0662
   6540 WAT         5.1590   16.5940   18.5910 O      6540 WAT       0.0612
   6541 WAT         5.1590   16.5940   18.8410 O      6541 WAT       0.0531
   6542 WAT         5.1590   16.5940   21.8410 O      6542 WAT       0.0520
   6543 WAT         5.1590   16.5940   22.0910 O      6543 WAT       0.0685
   6544 WAT         5.1590   16.5940   22.3410 O      6544 WAT       0.0787
   6545 WAT         5.1590   16.5940   22.5910 O      6545 WAT       0.0807
   6546 WAT         5.1590   16.5940   22.8410 O      6546 WAT       0.0760
   6547 WAT         5.1590   16.5940   23.0910 O      6547 WAT       0.0678
   6548 WAT         5.1590   16.5940   23.3410 O      6548 WAT       0.0589
   6549 WAT         5.1590   16.5940   23.5910 O      6549 WAT       0.0496
   6550 WAT         5.1590   16.5940   28.8410 O      6550 WAT       0.0595
   6551 WAT         5.1590   16.5940   29.0910 O      6551 WAT       0.0916
   6552 WAT         5.1590   16.5940   29.3410 O      6552 WAT       0.0973
   6553 WAT         5.1590   16.5940   29.5910 O      6553 WAT       0.0688
   6554 WAT         5.1590   16.8440   11.5910 O      6554 WAT       0.0574
   6555 WAT         5.1590   16.8440   11.8410 O      6555 WAT       0.0747
   6556 WAT         5.1590   16.8440   12.0910 O      6556 WAT       0.0830
   6557 WAT         5.1590   16.8440   12.3410 O      6557 WAT       0.0807
   6558 WAT         5.1590   16.8440   12.5910 O      6558 WAT       0.0711
   6559 WAT         5.1590   16.8440   12.8410 O      6559 WAT       0.0589
   6560 WAT         5.1590   16.8440   13.0910 O      6560 WAT       0.0460
   6561 WAT         5.1590   16.8440   17.5910 O      6561 WAT       0.0525
   6562 WAT         5.1590   16.8440   17.8410 O      6562 WAT       0.0748
   6563 WAT         5.1590   16.8440   18.0910 O      6563 WAT       0.0861
   6564 WAT         5.1590   16.8440   18.3410 O      6564 WAT       0.0828
   6565 WAT         5.1590   16.8440   18.5910 O      6565 WAT       0.0698
   6566 WAT         5.1590   16.8440   18.8410 O      6566 WAT       0.0538
   6567 WAT         5.1590   16.8440   22.0910 O      6567 WAT       0.0563
   6568 WAT         5.1590   16.8440   22.3410 O      6568 WAT       0.0712
   6569 WAT         5.1590   16.8440   22.5910 O      6569 WAT       0.0812
   6570 WAT         5.1590   16.8440   22.8410 O      6570 WAT       0.0850
   6571 WAT         5.1590   16.8440   23.0910 O      6571 WAT       0.0822
   6572 WAT         5.1590   16.8440   23.3410 O      6572 WAT       0.0732
   6573 WAT         5.1590   16.8440   23.5910 O      6573 WAT       0.0591
   6574 WAT         5.1590   16.8440   28.8410 O      6574 WAT       0.0476
   6575 WAT         5.1590   16.8440   29.0910 O      6575 WAT       0.0801
   6576 WAT         5.1590   16.8440   29.3410 O      6576 WAT       0.0916
   6577 WAT         5.1590   16.8440   29.5910 O      6577 WAT       0.0689
   6578 WAT         5.1590   17.0940   11.3410 O      6578 WAT       0.0555
   6579 WAT         5.1590   17.0940   11.5910 O      6579 WAT       0.0747
   6580 WAT         5.1590   17.0940   11.8410 O      6580 WAT       0.0834
   6581 WAT         5.1590   17.0940   12.0910 O      6581 WAT       0.0781
   6582 WAT         5.1590   17.0940   12.3410 O      6582 WAT       0.0634
   6583 WAT         5.1590   17.0940   12.5910 O      6583 WAT       0.0467
   6584 WAT         5.1590   17.0940   17.5910 O      6584 WAT       0.0582
   6585 WAT         5.1590   17.0940   17.8410 O      6585 WAT       0.0848
   6586 WAT         5.1590   17.0940   18.0910 O      6586 WAT       0.0971
   6587 WAT         5.1590   17.0940   18.3410 O      6587 WAT       0.0898
   6588 WAT         5.1590   17.0940   18.5910 O      6588 WAT       0.0700
   6589 WAT         5.1590   17.0940   18.8410 O      6589 WAT       0.0481
   6590 WAT         5.1590   17.0940   22.3410 O      6590 WAT       0.0633
   6591 WAT         5.1590   17.0940   22.5910 O      6591 WAT       0.0856
   6592 WAT         5.1590   17.0940   22.8410 O      6592 WAT       0.1024
   6593 WAT         5.1590   17.0940   23.0910 O      6593 WAT       0.1059
   6594 WAT         5.1590   17.0940   23.3410 O      6594 WAT       0.0925
   6595 WAT         5.1590   17.0940   23.5910 O      6595 WAT       0.0675
   6596 WAT         5.1590   17.0940   29.0910 O      6596 WAT       0.0481
   6597 WAT         5.1590   17.0940   29.3410 O      6597 WAT       0.0593
   6598 WAT         5.1590   17.0940   29.5910 O      6598 WAT       0.0471
   6599 WAT         5.1590   17.3440   11.0910 O      6599 WAT       0.0457
   6600 WAT         5.1590   17.3440   11.3410 O      6600 WAT       0.0626
   6601 WAT         5.1590   17.3440   11.5910 O      6601 WAT       0.0722
   6602 WAT         5.1590   17.3440   11.8410 O      6602 WAT       0.0678
   6603 WAT         5.1590   17.3440   12.0910 O      6603 WAT       0.0526
   6604 WAT         5.1590   17.3440   17.5910 O      6604 WAT       0.0566
   6605 WAT         5.1590   17.3440   17.8410 O      6605 WAT       0.0829
   6606 WAT         5.1590   17.3440   18.0910 O      6606 WAT       0.0941
   6607 WAT         5.1590   17.3440   18.3410 O      6607 WAT       0.0845
   6608 WAT         5.1590   17.3440   18.5910 O      6608 WAT       0.0620
   6609 WAT         5.1590   17.3440   22.3410 O      6609 WAT       0.0574
   6610 WAT         5.1590   17.3440   22.5910 O      6610 WAT       0.0928
   6611 WAT         5.1590   17.3440   22.8410 O      6611 WAT       0.1244
   6612 WAT         5.1590   17.3440   23.0910 O      6612 WAT       0.1334
   6613 WAT         5.1590   17.3440   23.3410 O      6613 WAT       0.1120
   6614 WAT         5.1590   17.3440   23.5910 O      6614 WAT       0.0729
   6615 WAT         5.1590   17.5940   11.0910 O      6615 WAT       0.0470
   6616 WAT         5.1590   17.5940   11.3410 O      6616 WAT       0.0544
   6617 WAT         5.1590   17.5940   11.5910 O      6617 WAT       0.0524
   6618 WAT         5.1590   17.5940   17.5910 O      6618 WAT       0.0481
   6619 WAT         5.1590   17.5940   17.8410 O      6619 WAT       0.0701
   6620 WAT         5.1590   17.5940   18.0910 O      6620 WAT       0.0786
   6621 WAT         5.1590   17.5940   18.3410 O      6621 WAT       0.0690
   6622 WAT         5.1590   17.5940   18.5910 O      6622 WAT       0.0486
   6623 WAT         5.1590   17.5940   22.3410 O      6623 WAT       0.0508
   6624 WAT         5.1590   17.5940   22.5910 O      6624 WAT       0.0932
   6625 WAT         5.1590   17.5940   22.8410 O      6625 WAT       0.1329
   6626 WAT         5.1590   17.5940   23.0910 O      6626 WAT       0.1437
   6627 WAT         5.1590   17.5940   23.3410 O      6627 WAT       0.1159
   6628 WAT         5.1590   17.5940   23.5910 O      6628 WAT       0.0688
   6629 WAT         5.1590   17.8440   17.8410 O      6629 WAT       0.0521
   6630 WAT         5.1590   17.8440   18.0910 O      6630 WAT       0.0576
   6631 WAT         5.1590   17.8440   18.3410 O      6631 WAT       0.0496
   6632 WAT         5.1590   17.8440   22.5910 O      6632 WAT       0.0803
   6633 WAT         5.1590   17.8440   22.8410 O      6633 WAT       0.1157
   6634 WAT         5.1590   17.8440   23.0910 O      6634 WAT       0.1233
   6635 WAT         5.1590   17.8440   23.3410 O      6635 WAT       0.0955
   6636 WAT         5.1590   17.8440   23.5910 O      6636 WAT       0.0528
   6637 WAT         5.1590   18.0940   22.5910 O      6637 WAT       0.0636
   6638 WAT         5.1590   18.0940   22.8410 O      6638 WAT       0.0878
   6639 WAT         5.1590   18.0940   23.0910 O      6639 WAT       0.0895
   6640 WAT         5.1590   18.0940   23.3410 O      6640 WAT       0.0656
   6641 WAT         5.1590   18.3440   22.5910 O      6641 WAT       0.0560
   6642 WAT         5.1590   18.3440   22.8410 O      6642 WAT       0.0705
   6643 WAT         5.1590   18.3440   23.0910 O      6643 WAT       0.0664
   6644 WAT         5.1590   18.3440   23.3410 O      6644 WAT       0.0452
   6645 WAT         5.1590   18.5940   22.5910 O      6645 WAT       0.0563
   6646 WAT         5.1590   18.5940   22.8410 O      6646 WAT       0.0650
   6647 WAT         5.1590   18.5940   23.0910 O      6647 WAT       0.0569
   6648 WAT         5.1590   18.8440   22.5910 O      6648 WAT       0.0555
   6649 WAT         5.1590   18.8440   22.8410 O      6649 WAT       0.0607
   6650 WAT         5.1590   18.8440   23.0910 O      6650 WAT       0.0510
   6651 WAT         5.1590   19.0940   22.5910 O      6651 WAT       0.0502
   6652 WAT         5.1590   19.0940   22.8410 O      6652 WAT       0.0529
   6653 WAT         5.1590   20.5940   11.0910 O      6653 WAT       0.0480
   6654 WAT         5.1590   20.5940   11.3410 O      6654 WAT       0.0613
   6655 WAT         5.1590   20.5940   11.5910 O      6655 WAT       0.0571
   6656 WAT         5.1590   20.8440   10.8410 O      6656 WAT       0.0499
   6657 WAT         5.1590   20.8440   11.0910 O      6657 WAT       0.0930
   6658 WAT         5.1590   20.8440   11.3410 O      6658 WAT       0.1325
   6659 WAT         5.1590   20.8440   11.5910 O      6659 WAT       0.1360
   6660 WAT         5.1590   20.8440   11.8410 O      6660 WAT       0.0970
   6661 WAT         5.1590   20.8440   12.0910 O      6661 WAT       0.0464
   6662 WAT         5.1590   21.0940   10.8410 O      6662 WAT       0.0663
   6663 WAT         5.1590   21.0940   11.0910 O      6663 WAT       0.1340
   6664 WAT         5.1590   21.0940   11.3410 O      6664 WAT       0.2069
   6665 WAT         5.1590   21.0940   11.5910 O      6665 WAT       0.2288
   6666 WAT         5.1590   21.0940   11.8410 O      6666 WAT       0.1743
   6667 WAT         5.1590   21.0940   12.0910 O      6667 WAT       0.0889
   6668 WAT         5.1590   21.3440   10.8410 O      6668 WAT       0.0654
   6669 WAT         5.1590   21.3440   11.0910 O      6669 WAT       0.1391
   6670 WAT         5.1590   21.3440   11.3410 O      6670 WAT       0.2283
   6671 WAT         5.1590   21.3440   11.5910 O      6671 WAT       0.2677
   6672 WAT         5.1590   21.3440   11.8410 O      6672 WAT       0.2149
   6673 WAT         5.1590   21.3440   12.0910 O      6673 WAT       0.1149
   6674 WAT         5.1590   21.5940   10.8410 O      6674 WAT       0.0469
   6675 WAT         5.1590   21.5940   11.0910 O      6675 WAT       0.1019
   6676 WAT         5.1590   21.5940   11.3410 O      6676 WAT       0.1748
   6677 WAT         5.1590   21.5940   11.5910 O      6677 WAT       0.2146
   6678 WAT         5.1590   21.5940   11.8410 O      6678 WAT       0.1797
   6679 WAT         5.1590   21.5940   12.0910 O      6679 WAT       0.0998
   6680 WAT         5.1590   21.8440   11.0910 O      6680 WAT       0.0518
   6681 WAT         5.1590   21.8440   11.3410 O      6681 WAT       0.0915
   6682 WAT         5.1590   21.8440   11.5910 O      6682 WAT       0.1164
   6683 WAT         5.1590   21.8440   11.8410 O      6683 WAT       0.1009
   6684 WAT         5.1590   21.8440   12.0910 O      6684 WAT       0.0576
   6685 WAT         5.1590   22.5940    8.5910 O      6685 WAT       0.0451
   6686 WAT         5.1590   22.5940    8.8410 O      6686 WAT       0.0499
   6687 WAT         5.1590   22.5940    9.0910 O      6687 WAT       0.0455
   6688 WAT         5.1590   22.8440    8.5910 O      6688 WAT       0.0546
   6689 WAT         5.1590   22.8440    8.8410 O      6689 WAT       0.0620
   6690 WAT         5.1590   22.8440    9.0910 O      6690 WAT       0.0560
   6691 WAT         5.1590   23.0940    8.5910 O      6691 WAT       0.0471
   6692 WAT         5.1590   23.0940    8.8410 O      6692 WAT       0.0560
   6693 WAT         5.1590   23.0940    9.0910 O      6693 WAT       0.0518
   6694 WAT         5.1590   23.3440    5.3410 O      6694 WAT       0.0623
   6695 WAT         5.1590   23.3440    5.5910 O      6695 WAT       0.0671
   6696 WAT         5.1590   23.3440    5.8410 O      6696 WAT       0.0561
   6697 WAT         5.1590   23.5940    4.8410 O      6697 WAT       0.0464
   6698 WAT         5.1590   23.5940    5.0910 O      6698 WAT       0.0770
   6699 WAT         5.1590   23.5940    5.3410 O      6699 WAT       0.0966
   6700 WAT         5.1590   23.5940    5.5910 O      6700 WAT       0.0915
   6701 WAT         5.1590   23.5940    5.8410 O      6701 WAT       0.0664
   6702 WAT         5.1590   23.8440    4.8410 O      6702 WAT       0.0716
   6703 WAT         5.1590   23.8440    5.0910 O      6703 WAT       0.1074
   6704 WAT         5.1590   23.8440    5.3410 O      6704 WAT       0.1201
   6705 WAT         5.1590   23.8440    5.5910 O      6705 WAT       0.1001
   6706 WAT         5.1590   23.8440    5.8410 O      6706 WAT       0.0633
   6707 WAT         5.1590   24.0940    4.5910 O      6707 WAT       0.0498
   6708 WAT         5.1590   24.0940    4.8410 O      6708 WAT       0.0876
   6709 WAT         5.1590   24.0940    5.0910 O      6709 WAT       0.1178
   6710 WAT         5.1590   24.0940    5.3410 O      6710 WAT       0.1173
   6711 WAT         5.1590   24.0940    5.5910 O      6711 WAT       0.0864
   6712 WAT         5.1590   24.0940    5.8410 O      6712 WAT       0.0477
   6713 WAT         5.1590   24.3440    4.5910 O      6713 WAT       0.0530
   6714 WAT         5.1590   24.3440    4.8410 O      6714 WAT       0.0835
   6715 WAT         5.1590   24.3440    5.0910 O      6715 WAT       0.1000
   6716 WAT         5.1590   24.3440    5.3410 O      6716 WAT       0.0883
   6717 WAT         5.1590   24.3440    5.5910 O      6717 WAT       0.0573
   6718 WAT         5.1590   24.5940    4.8410 O      6718 WAT       0.0610
   6719 WAT         5.1590   24.5940    5.0910 O      6719 WAT       0.0645
   6720 WAT         5.1590   24.5940    5.3410 O      6720 WAT       0.0501
   6721 WAT         5.1590   25.8440    3.0910 O      6721 WAT       0.0451
   6722 WAT         5.1590   26.0940    3.0910 O      6722 WAT       0.0456
   6723 WAT         5.1590   26.3440    2.8410 O      6723 WAT       0.0456
   6724 WAT         5.1590   26.5940    2.8410 O      6724 WAT       0.0485
   6725 WAT         5.1590   26.8440    2.5910 O      6725 WAT       0.0505
   6726 WAT         5.1590   26.8440    2.8410 O      6726 WAT       0.0494
   6727 WAT         5.1590   27.0940    2.5910 O      6727 WAT       0.0527
   6728 WAT         5.1590   27.0940    2.8410 O      6728 WAT       0.0467
   6729 WAT         5.1590   27.3440    2.5910 O      6729 WAT       0.0485
   6730 WAT         5.4090   11.5940   25.5910 O      6730 WAT       0.0459
   6731 WAT         5.4090   11.8440   25.3410 O      6731 WAT       0.0461
   6732 WAT         5.4090   11.8440   25.5910 O      6732 WAT       0.0540
   6733 WAT         5.4090   11.8440   25.8410 O      6733 WAT       0.0531
   6734 WAT         5.4090   12.0940   25.3410 O      6734 WAT       0.0458
   6735 WAT         5.4090   12.0940   25.5910 O      6735 WAT       0.0556
   6736 WAT         5.4090   12.0940   25.8410 O      6736 WAT       0.0574
   6737 WAT         5.4090   12.0940   26.0910 O      6737 WAT       0.0484
   6738 WAT         5.4090   12.3440   25.5910 O      6738 WAT       0.0529
   6739 WAT         5.4090   12.3440   25.8410 O      6739 WAT       0.0557
   6740 WAT         5.4090   12.3440   26.0910 O      6740 WAT       0.0489
   6741 WAT         5.4090   12.5940   25.5910 O      6741 WAT       0.0487
   6742 WAT         5.4090   12.5940   25.8410 O      6742 WAT       0.0508
   6743 WAT         5.4090   12.5940   26.0910 O      6743 WAT       0.0450
   6744 WAT         5.4090   14.3440   22.3410 O      6744 WAT       0.0459
   6745 WAT         5.4090   14.5940   22.0910 O      6745 WAT       0.0458
   6746 WAT         5.4090   14.5940   22.3410 O      6746 WAT       0.0467
   6747 WAT         5.4090   14.8440   26.3410 O      6747 WAT       0.0461
   6748 WAT         5.4090   15.0940   26.0910 O      6748 WAT       0.0468
   6749 WAT         5.4090   15.0940   26.3410 O      6749 WAT       0.0550
   6750 WAT         5.4090   15.0940   26.5910 O      6750 WAT       0.0530
   6751 WAT         5.4090   15.3440   22.0910 O      6751 WAT       0.0457
   6752 WAT         5.4090   15.3440   22.3410 O      6752 WAT       0.0453
   6753 WAT         5.4090   15.3440   26.0910 O      6753 WAT       0.0488
   6754 WAT         5.4090   15.3440   26.3410 O      6754 WAT       0.0633
   6755 WAT         5.4090   15.3440   26.5910 O      6755 WAT       0.0669
   6756 WAT         5.4090   15.3440   26.8410 O      6756 WAT       0.0542
   6757 WAT         5.4090   15.5940   21.8410 O      6757 WAT       0.0556
   6758 WAT         5.4090   15.5940   22.0910 O      6758 WAT       0.0617
   6759 WAT         5.4090   15.5940   22.3410 O      6759 WAT       0.0605
   6760 WAT         5.4090   15.5940   22.5910 O      6760 WAT       0.0528
   6761 WAT         5.4090   15.5940   26.0910 O      6761 WAT       0.0478
   6762 WAT         5.4090   15.5940   26.3410 O      6762 WAT       0.0649
   6763 WAT         5.4090   15.5940   26.5910 O      6763 WAT       0.0725
   6764 WAT         5.4090   15.5940   26.8410 O      6764 WAT       0.0624
   6765 WAT         5.4090   15.8440   21.5910 O      6765 WAT       0.0592
   6766 WAT         5.4090   15.8440   21.8410 O      6766 WAT       0.0747
   6767 WAT         5.4090   15.8440   22.0910 O      6767 WAT       0.0822
   6768 WAT         5.4090   15.8440   22.3410 O      6768 WAT       0.0792
   6769 WAT         5.4090   15.8440   22.5910 O      6769 WAT       0.0680
   6770 WAT         5.4090   15.8440   22.8410 O      6770 WAT       0.0525
   6771 WAT         5.4090   15.8440   26.3410 O      6771 WAT       0.0544
   6772 WAT         5.4090   15.8440   26.5910 O      6772 WAT       0.0623
   6773 WAT         5.4090   15.8440   26.8410 O      6773 WAT       0.0557
   6774 WAT         5.4090   16.0940   12.8410 O      6774 WAT       0.0498
   6775 WAT         5.4090   16.0940   13.0910 O      6775 WAT       0.0593
   6776 WAT         5.4090   16.0940   13.3410 O      6776 WAT       0.0615
   6777 WAT         5.4090   16.0940   13.5910 O      6777 WAT       0.0547
   6778 WAT         5.4090   16.0940   18.5910 O      6778 WAT       0.0488
   6779 WAT         5.4090   16.0940   18.8410 O      6779 WAT       0.0521
   6780 WAT         5.4090   16.0940   19.0910 O      6780 WAT       0.0495
   6781 WAT         5.4090   16.0940   21.3410 O      6781 WAT       0.0477
   6782 WAT         5.4090   16.0940   21.5910 O      6782 WAT       0.0699
   6783 WAT         5.4090   16.0940   21.8410 O      6783 WAT       0.0894
   6784 WAT         5.4090   16.0940   22.0910 O      6784 WAT       0.0981
   6785 WAT         5.4090   16.0940   22.3410 O      6785 WAT       0.0942
   6786 WAT         5.4090   16.0940   22.5910 O      6786 WAT       0.0809
   6787 WAT         5.4090   16.0940   22.8410 O      6787 WAT       0.0632
   6788 WAT         5.4090   16.0940   23.0910 O      6788 WAT       0.0464
   6789 WAT         5.4090   16.3440   12.0910 O      6789 WAT       0.0461
   6790 WAT         5.4090   16.3440   12.3410 O      6790 WAT       0.0621
   6791 WAT         5.4090   16.3440   12.5910 O      6791 WAT       0.0767
   6792 WAT         5.4090   16.3440   12.8410 O      6792 WAT       0.0875
   6793 WAT         5.4090   16.3440   13.0910 O      6793 WAT       0.0899
   6794 WAT         5.4090   16.3440   13.3410 O      6794 WAT       0.0797
   6795 WAT         5.4090   16.3440   13.5910 O      6795 WAT       0.0596
   6796 WAT         5.4090   16.3440   18.0910 O      6796 WAT       0.0521
   6797 WAT         5.4090   16.3440   18.3410 O      6797 WAT       0.0605
   6798 WAT         5.4090   16.3440   18.5910 O      6798 WAT       0.0656
   6799 WAT         5.4090   16.3440   18.8410 O      6799 WAT       0.0645
   6800 WAT         5.4090   16.3440   19.0910 O      6800 WAT       0.0556
   6801 WAT         5.4090   16.3440   21.5910 O      6801 WAT       0.0692
   6802 WAT         5.4090   16.3440   21.8410 O      6802 WAT       0.0913
   6803 WAT         5.4090   16.3440   22.0910 O      6803 WAT       0.1025
   6804 WAT         5.4090   16.3440   22.3410 O      6804 WAT       0.1006
   6805 WAT         5.4090   16.3440   22.5910 O      6805 WAT       0.0887
   6806 WAT         5.4090   16.3440   22.8410 O      6806 WAT       0.0721
   6807 WAT         5.4090   16.3440   23.0910 O      6807 WAT       0.0565
   6808 WAT         5.4090   16.3440   23.3410 O      6808 WAT       0.0451
   6809 WAT         5.4090   16.5940   11.8410 O      6809 WAT       0.0647
   6810 WAT         5.4090   16.5940   12.0910 O      6810 WAT       0.0845
   6811 WAT         5.4090   16.5940   12.3410 O      6811 WAT       0.0983
   6812 WAT         5.4090   16.5940   12.5910 O      6812 WAT       0.1047
   6813 WAT         5.4090   16.5940   12.8410 O      6813 WAT       0.1032
   6814 WAT         5.4090   16.5940   13.0910 O      6814 WAT       0.0921
   6815 WAT         5.4090   16.5940   13.3410 O      6815 WAT       0.0711
   6816 WAT         5.4090   16.5940   13.5910 O      6816 WAT       0.0458
   6817 WAT         5.4090   16.5940   17.8410 O      6817 WAT       0.0555
   6818 WAT         5.4090   16.5940   18.0910 O      6818 WAT       0.0682
   6819 WAT         5.4090   16.5940   18.3410 O      6819 WAT       0.0747
   6820 WAT         5.4090   16.5940   18.5910 O      6820 WAT       0.0747
   6821 WAT         5.4090   16.5940   18.8410 O      6821 WAT       0.0675
   6822 WAT         5.4090   16.5940   19.0910 O      6822 WAT       0.0534
   6823 WAT         5.4090   16.5940   21.5910 O      6823 WAT       0.0558
   6824 WAT         5.4090   16.5940   21.8410 O      6824 WAT       0.0785
   6825 WAT         5.4090   16.5940   22.0910 O      6825 WAT       0.0938
   6826 WAT         5.4090   16.5940   22.3410 O      6826 WAT       0.0981
   6827 WAT         5.4090   16.5940   22.5910 O      6827 WAT       0.0930
   6828 WAT         5.4090   16.5940   22.8410 O      6828 WAT       0.0827
   6829 WAT         5.4090   16.5940   23.0910 O      6829 WAT       0.0713
   6830 WAT         5.4090   16.5940   23.3410 O      6830 WAT       0.0612
   6831 WAT         5.4090   16.5940   23.5910 O      6831 WAT       0.0518
   6832 WAT         5.4090   16.8440   11.3410 O      6832 WAT       0.0493
   6833 WAT         5.4090   16.8440   11.5910 O      6833 WAT       0.0746
   6834 WAT         5.4090   16.8440   11.8410 O      6834 WAT       0.0966
   6835 WAT         5.4090   16.8440   12.0910 O      6835 WAT       0.1075
   6836 WAT         5.4090   16.8440   12.3410 O      6836 WAT       0.1061
   6837 WAT         5.4090   16.8440   12.5910 O      6837 WAT       0.0959
   6838 WAT         5.4090   16.8440   12.8410 O      6838 WAT       0.0809
   6839 WAT         5.4090   16.8440   13.0910 O      6839 WAT       0.0626
   6840 WAT         5.4090   16.8440   17.8410 O      6840 WAT       0.0627
   6841 WAT         5.4090   16.8440   18.0910 O      6841 WAT       0.0757
   6842 WAT         5.4090   16.8440   18.3410 O      6842 WAT       0.0778
   6843 WAT         5.4090   16.8440   18.5910 O      6843 WAT       0.0710
   6844 WAT         5.4090   16.8440   18.8410 O      6844 WAT       0.0583
   6845 WAT         5.4090   16.8440   21.8410 O      6845 WAT       0.0568
   6846 WAT         5.4090   16.8440   22.0910 O      6846 WAT       0.0763
   6847 WAT         5.4090   16.8440   22.3410 O      6847 WAT       0.0914
   6848 WAT         5.4090   16.8440   22.5910 O      6848 WAT       0.1013
   6849 WAT         5.4090   16.8440   22.8410 O      6849 WAT       0.1053
   6850 WAT         5.4090   16.8440   23.0910 O      6850 WAT       0.1018
   6851 WAT         5.4090   16.8440   23.3410 O      6851 WAT       0.0897
   6852 WAT         5.4090   16.8440   23.5910 O      6852 WAT       0.0710
   6853 WAT         5.4090   16.8440   23.8410 O      6853 WAT       0.0500
   6854 WAT         5.4090   17.0940   11.0910 O      6854 WAT       0.0466
   6855 WAT         5.4090   17.0940   11.3410 O      6855 WAT       0.0717
   6856 WAT         5.4090   17.0940   11.5910 O      6856 WAT       0.0943
   6857 WAT         5.4090   17.0940   11.8410 O      6857 WAT       0.1034
   6858 WAT         5.4090   17.0940   12.0910 O      6858 WAT       0.0960
   6859 WAT         5.4090   17.0940   12.3410 O      6859 WAT       0.0785
   6860 WAT         5.4090   17.0940   12.5910 O      6860 WAT       0.0590
   6861 WAT         5.4090   17.0940   17.8410 O      6861 WAT       0.0603
   6862 WAT         5.4090   17.0940   18.0910 O      6862 WAT       0.0714
   6863 WAT         5.4090   17.0940   18.3410 O      6863 WAT       0.0694
   6864 WAT         5.4090   17.0940   18.5910 O      6864 WAT       0.0577
   6865 WAT         5.4090   17.0940   22.0910 O      6865 WAT       0.0580
   6866 WAT         5.4090   17.0940   22.3410 O      6866 WAT       0.0876
   6867 WAT         5.4090   17.0940   22.5910 O      6867 WAT       0.1218
   6868 WAT         5.4090   17.0940   22.8410 O      6868 WAT       0.1505
   6869 WAT         5.4090   17.0940   23.0910 O      6869 WAT       0.1580
   6870 WAT         5.4090   17.0940   23.3410 O      6870 WAT       0.1370
   6871 WAT         5.4090   17.0940   23.5910 O      6871 WAT       0.0969
   6872 WAT         5.4090   17.0940   23.8410 O      6872 WAT       0.0565
   6873 WAT         5.4090   17.3440   11.0910 O      6873 WAT       0.0591
   6874 WAT         5.4090   17.3440   11.3410 O      6874 WAT       0.0790
   6875 WAT         5.4090   17.3440   11.5910 O      6875 WAT       0.0880
   6876 WAT         5.4090   17.3440   11.8410 O      6876 WAT       0.0801
   6877 WAT         5.4090   17.3440   12.0910 O      6877 WAT       0.0607
   6878 WAT         5.4090   17.3440   17.8410 O      6878 WAT       0.0497
   6879 WAT         5.4090   17.3440   18.0910 O      6879 WAT       0.0579
   6880 WAT         5.4090   17.3440   18.3410 O      6880 WAT       0.0537
   6881 WAT         5.4090   17.3440   22.3410 O      6881 WAT       0.0869
   6882 WAT         5.4090   17.3440   22.5910 O      6882 WAT       0.1483
   6883 WAT         5.4090   17.3440   22.8410 O      6883 WAT       0.2063
   6884 WAT         5.4090   17.3440   23.0910 O      6884 WAT       0.2252
   6885 WAT         5.4090   17.3440   23.3410 O      6885 WAT       0.1889
   6886 WAT         5.4090   17.3440   23.5910 O      6886 WAT       0.1207
   6887 WAT         5.4090   17.3440   23.8410 O      6887 WAT       0.0590
   6888 WAT         5.4090   17.5940   10.8410 O      6888 WAT       0.0463
   6889 WAT         5.4090   17.5940   11.0910 O      6889 WAT       0.0593
   6890 WAT         5.4090   17.5940   11.3410 O      6890 WAT       0.0666
   6891 WAT         5.4090   17.5940   11.5910 O      6891 WAT       0.0614
   6892 WAT         5.4090   17.5940   11.8410 O      6892 WAT       0.0456
   6893 WAT         5.4090   17.5940   22.3410 O      6893 WAT       0.0798
   6894 WAT         5.4090   17.5940   22.5910 O      6894 WAT       0.1542
   6895 WAT         5.4090   17.5940   22.8410 O      6895 WAT       0.2273
   6896 WAT         5.4090   17.5940   23.0910 O      6896 WAT       0.2503
   6897 WAT         5.4090   17.5940   23.3410 O      6897 WAT       0.2032
   6898 WAT         5.4090   17.5940   23.5910 O      6898 WAT       0.1206
   6899 WAT         5.4090   17.5940   23.8410 O      6899 WAT       0.0519
   6900 WAT         5.4090   17.8440   10.8410 O      6900 WAT       0.0455
   6901 WAT         5.4090   17.8440   11.0910 O      6901 WAT       0.0486
   6902 WAT         5.4090   17.8440   22.3410 O      6902 WAT       0.0600
   6903 WAT         5.4090   17.8440   22.5910 O      6903 WAT       0.1225
   6904 WAT         5.4090   17.8440   22.8410 O      6904 WAT       0.1837
   6905 WAT         5.4090   17.8440   23.0910 O      6905 WAT       0.2007
   6906 WAT         5.4090   17.8440   23.3410 O      6906 WAT       0.1582
   6907 WAT         5.4090   17.8440   23.5910 O      6907 WAT       0.0888
   6908 WAT         5.4090   18.0940   22.5910 O      6908 WAT       0.0744
   6909 WAT         5.4090   18.0940   22.8410 O      6909 WAT       0.1098
   6910 WAT         5.4090   18.0940   23.0910 O      6910 WAT       0.1170
   6911 WAT         5.4090   18.0940   23.3410 O      6911 WAT       0.0890
   6912 WAT         5.4090   18.0940   23.5910 O      6912 WAT       0.0473
   6913 WAT         5.4090   18.3440   22.8410 O      6913 WAT       0.0556
   6914 WAT         5.4090   18.3440   23.0910 O      6914 WAT       0.0559
   6915 WAT         5.4090   18.5940   10.0910 O      6915 WAT       0.0461
   6916 WAT         5.4090   18.8440    9.8410 O      6916 WAT       0.0463
   6917 WAT         5.4090   18.8440   10.0910 O      6917 WAT       0.0453
   6918 WAT         5.4090   20.5940   11.3410 O      6918 WAT       0.0487
   6919 WAT         5.4090   20.8440   10.8410 O      6919 WAT       0.0461
   6920 WAT         5.4090   20.8440   11.0910 O      6920 WAT       0.0818
   6921 WAT         5.4090   20.8440   11.3410 O      6921 WAT       0.1100
   6922 WAT         5.4090   20.8440   11.5910 O      6922 WAT       0.1058
   6923 WAT         5.4090   20.8440   11.8410 O      6923 WAT       0.0703
   6924 WAT         5.4090   21.0940   10.8410 O      6924 WAT       0.0628
   6925 WAT         5.4090   21.0940   11.0910 O      6925 WAT       0.1223
   6926 WAT         5.4090   21.0940   11.3410 O      6926 WAT       0.1799
   6927 WAT         5.4090   21.0940   11.5910 O      6927 WAT       0.1885
   6928 WAT         5.4090   21.0940   11.8410 O      6928 WAT       0.1354
   6929 WAT         5.4090   21.0940   12.0910 O      6929 WAT       0.0647
   6930 WAT         5.4090   21.3440   10.8410 O      6930 WAT       0.0644
   6931 WAT         5.4090   21.3440   11.0910 O      6931 WAT       0.1328
   6932 WAT         5.4090   21.3440   11.3410 O      6932 WAT       0.2095
   6933 WAT         5.4090   21.3440   11.5910 O      6933 WAT       0.2348
   6934 WAT         5.4090   21.3440   11.8410 O      6934 WAT       0.1794
   6935 WAT         5.4090   21.3440   12.0910 O      6935 WAT       0.0908
   6936 WAT         5.4090   21.5940   10.8410 O      6936 WAT       0.0492
   6937 WAT         5.4090   21.5940   11.0910 O      6937 WAT       0.1032
   6938 WAT         5.4090   21.5940   11.3410 O      6938 WAT       0.1710
   6939 WAT         5.4090   21.5940   11.5910 O      6939 WAT       0.2021
   6940 WAT         5.4090   21.5940   11.8410 O      6940 WAT       0.1625
   6941 WAT         5.4090   21.5940   12.0910 O      6941 WAT       0.0863
   6942 WAT         5.4090   21.8440   11.0910 O      6942 WAT       0.0570
   6943 WAT         5.4090   21.8440   11.3410 O      6943 WAT       0.0970
   6944 WAT         5.4090   21.8440   11.5910 O      6944 WAT       0.1194
   6945 WAT         5.4090   21.8440   11.8410 O      6945 WAT       0.1001
   6946 WAT         5.4090   21.8440   12.0910 O      6946 WAT       0.0552
   6947 WAT         5.4090   22.0940   11.5910 O      6947 WAT       0.0480
   6948 WAT         5.4090   22.8440    8.8410 O      6948 WAT       0.0512
   6949 WAT         5.4090   22.8440    9.0910 O      6949 WAT       0.0481
   6950 WAT         5.4090   23.0940    8.8410 O      6950 WAT       0.0516
   6951 WAT         5.4090   23.0940    9.0910 O      6951 WAT       0.0492
   6952 WAT         5.4090   23.3440    5.3410 O      6952 WAT       0.0527
   6953 WAT         5.4090   23.3440    5.5910 O      6953 WAT       0.0621
   6954 WAT         5.4090   23.3440    5.8410 O      6954 WAT       0.0583
   6955 WAT         5.4090   23.5940    5.0910 O      6955 WAT       0.0621
   6956 WAT         5.4090   23.5940    5.3410 O      6956 WAT       0.0846
   6957 WAT         5.4090   23.5940    5.5910 O      6957 WAT       0.0892
   6958 WAT         5.4090   23.5940    5.8410 O      6958 WAT       0.0739
   6959 WAT         5.4090   23.5940    6.0910 O      6959 WAT       0.0502
   6960 WAT         5.4090   23.8440    4.8410 O      6960 WAT       0.0554
   6961 WAT         5.4090   23.8440    5.0910 O      6961 WAT       0.0880
   6962 WAT         5.4090   23.8440    5.3410 O      6962 WAT       0.1079
   6963 WAT         5.4090   23.8440    5.5910 O      6963 WAT       0.1013
   6964 WAT         5.4090   23.8440    5.8410 O      6964 WAT       0.0742
   6965 WAT         5.4090   24.0940    4.8410 O      6965 WAT       0.0674
   6966 WAT         5.4090   24.0940    5.0910 O      6966 WAT       0.0967
   6967 WAT         5.4090   24.0940    5.3410 O      6967 WAT       0.1063
   6968 WAT         5.4090   24.0940    5.5910 O      6968 WAT       0.0887
   6969 WAT         5.4090   24.0940    5.8410 O      6969 WAT       0.0574
   6970 WAT         5.4090   24.3440    4.8410 O      6970 WAT       0.0627
   6971 WAT         5.4090   24.3440    5.0910 O      6971 WAT       0.0804
   6972 WAT         5.4090   24.3440    5.3410 O      6972 WAT       0.0787
   6973 WAT         5.4090   24.3440    5.5910 O      6973 WAT       0.0583
   6974 WAT         5.4090   24.5940    5.0910 O      6974 WAT       0.0497
   6975 WAT         5.4090   26.5940    2.8410 O      6975 WAT       0.0484
   6976 WAT         5.4090   26.8440    2.5910 O      6976 WAT       0.0504
   6977 WAT         5.4090   26.8440    2.8410 O      6977 WAT       0.0503
   6978 WAT         5.4090   27.0940    2.5910 O      6978 WAT       0.0497
   6979 WAT         5.6590   10.0940   21.3410 O      6979 WAT       0.0452
   6980 WAT         5.6590   10.0940   21.5910 O      6980 WAT       0.0497
   6981 WAT         5.6590   10.0940   21.8410 O      6981 WAT       0.0503
   6982 WAT         5.6590   10.0940   22.0910 O      6982 WAT       0.0465
   6983 WAT         5.6590   10.3440   21.3410 O      6983 WAT       0.0509
   6984 WAT         5.6590   10.3440   21.5910 O      6984 WAT       0.0554
   6985 WAT         5.6590   10.3440   21.8410 O      6985 WAT       0.0560
   6986 WAT         5.6590   10.3440   22.0910 O      6986 WAT       0.0525
   6987 WAT         5.6590   10.3440   22.3410 O      6987 WAT       0.0462
   6988 WAT         5.6590   10.5940   21.3410 O      6988 WAT       0.0496
   6989 WAT         5.6590   10.5940   21.5910 O      6989 WAT       0.0532
   6990 WAT         5.6590   10.5940   21.8410 O      6990 WAT       0.0535
   6991 WAT         5.6590   10.5940   22.0910 O      6991 WAT       0.0507
   6992 WAT         5.6590   10.5940   22.3410 O      6992 WAT       0.0458
   6993 WAT         5.6590   14.0940   21.8410 O      6993 WAT       0.0459
   6994 WAT         5.6590   14.0940   22.0910 O      6994 WAT       0.0557
   6995 WAT         5.6590   14.0940   22.3410 O      6995 WAT       0.0615
   6996 WAT         5.6590   14.0940   22.5910 O      6996 WAT       0.0610
   6997 WAT         5.6590   14.0940   22.8410 O      6997 WAT       0.0537
   6998 WAT         5.6590   14.3440   21.5910 O      6998 WAT       0.0546
   6999 WAT         5.6590   14.3440   21.8410 O      6999 WAT       0.0694
   7000 WAT         5.6590   14.3440   22.0910 O      7000 WAT       0.0778
   7001 WAT         5.6590   14.3440   22.3410 O      7001 WAT       0.0784
   7002 WAT         5.6590   14.3440   22.5910 O      7002 WAT       0.0714
   7003 WAT         5.6590   14.3440   22.8410 O      7003 WAT       0.0585
   7004 WAT         5.6590   14.5940   21.3410 O      7004 WAT       0.0492
   7005 WAT         5.6590   14.5940   21.5910 O      7005 WAT       0.0684
   7006 WAT         5.6590   14.5940   21.8410 O      7006 WAT       0.0810
   7007 WAT         5.6590   14.5940   22.0910 O      7007 WAT       0.0835
   7008 WAT         5.6590   14.5940   22.3410 O      7008 WAT       0.0770
   7009 WAT         5.6590   14.5940   22.5910 O      7009 WAT       0.0645
   7010 WAT         5.6590   14.5940   22.8410 O      7010 WAT       0.0491
   7011 WAT         5.6590   14.8440   21.3410 O      7011 WAT       0.0517
   7012 WAT         5.6590   14.8440   21.5910 O      7012 WAT       0.0672
   7013 WAT         5.6590   14.8440   21.8410 O      7013 WAT       0.0740
   7014 WAT         5.6590   14.8440   22.0910 O      7014 WAT       0.0712
   7015 WAT         5.6590   14.8440   22.3410 O      7015 WAT       0.0614
   7016 WAT         5.6590   14.8440   22.5910 O      7016 WAT       0.0483
   7017 WAT         5.6590   15.0940   21.3410 O      7017 WAT       0.0467
   7018 WAT         5.6590   15.0940   21.5910 O      7018 WAT       0.0571
   7019 WAT         5.6590   15.0940   21.8410 O      7019 WAT       0.0599
   7020 WAT         5.6590   15.0940   22.0910 O      7020 WAT       0.0558
   7021 WAT         5.6590   15.0940   22.3410 O      7021 WAT       0.0472
   7022 WAT         5.6590   15.3440   21.5910 O      7022 WAT       0.0523
   7023 WAT         5.6590   15.3440   21.8410 O      7023 WAT       0.0550
   7024 WAT         5.6590   15.3440   22.0910 O      7024 WAT       0.0520
   7025 WAT         5.6590   15.5940   21.3410 O      7025 WAT       0.0482
   7026 WAT         5.6590   15.5940   21.5910 O      7026 WAT       0.0596
   7027 WAT         5.6590   15.5940   21.8410 O      7027 WAT       0.0648
   7028 WAT         5.6590   15.5940   22.0910 O      7028 WAT       0.0623
   7029 WAT         5.6590   15.5940   22.3410 O      7029 WAT       0.0534
   7030 WAT         5.6590   15.8440   13.3410 O      7030 WAT       0.0492
   7031 WAT         5.6590   15.8440   13.5910 O      7031 WAT       0.0514
   7032 WAT         5.6590   15.8440   13.8410 O      7032 WAT       0.0475
   7033 WAT         5.6590   15.8440   18.8410 O      7033 WAT       0.0471
   7034 WAT         5.6590   15.8440   21.3410 O      7034 WAT       0.0572
   7035 WAT         5.6590   15.8440   21.5910 O      7035 WAT       0.0741
   7036 WAT         5.6590   15.8440   21.8410 O      7036 WAT       0.0825
   7037 WAT         5.6590   15.8440   22.0910 O      7037 WAT       0.0792
   7038 WAT         5.6590   15.8440   22.3410 O      7038 WAT       0.0670
   7039 WAT         5.6590   15.8440   22.5910 O      7039 WAT       0.0510
   7040 WAT         5.6590   16.0940   12.5910 O      7040 WAT       0.0539
   7041 WAT         5.6590   16.0940   12.8410 O      7041 WAT       0.0723
   7042 WAT         5.6590   16.0940   13.0910 O      7042 WAT       0.0848
   7043 WAT         5.6590   16.0940   13.3410 O      7043 WAT       0.0844
   7044 WAT         5.6590   16.0940   13.5910 O      7044 WAT       0.0711
   7045 WAT         5.6590   16.0940   13.8410 O      7045 WAT       0.0522
   7046 WAT         5.6590   16.0940   18.3410 O      7046 WAT       0.0565
   7047 WAT         5.6590   16.0940   18.5910 O      7047 WAT       0.0659
   7048 WAT         5.6590   16.0940   18.8410 O      7048 WAT       0.0670
   7049 WAT         5.6590   16.0940   19.0910 O      7049 WAT       0.0580
   7050 WAT         5.6590   16.0940   21.3410 O      7050 WAT       0.0626
   7051 WAT         5.6590   16.0940   21.5910 O      7051 WAT       0.0847
   7052 WAT         5.6590   16.0940   21.8410 O      7052 WAT       0.0962
   7053 WAT         5.6590   16.0940   22.0910 O      7053 WAT       0.0927
   7054 WAT         5.6590   16.0940   22.3410 O      7054 WAT       0.0781
   7055 WAT         5.6590   16.0940   22.5910 O      7055 WAT       0.0595
   7056 WAT         5.6590   16.3440   12.0910 O      7056 WAT       0.0590
   7057 WAT         5.6590   16.3440   12.3410 O      7057 WAT       0.0826
   7058 WAT         5.6590   16.3440   12.5910 O      7058 WAT       0.1060
   7059 WAT         5.6590   16.3440   12.8410 O      7059 WAT       0.1229
   7060 WAT         5.6590   16.3440   13.0910 O      7060 WAT       0.1239
   7061 WAT         5.6590   16.3440   13.3410 O      7061 WAT       0.1048
   7062 WAT         5.6590   16.3440   13.5910 O      7062 WAT       0.0732
   7063 WAT         5.6590   16.3440   18.0910 O      7063 WAT       0.0575
   7064 WAT         5.6590   16.3440   18.3410 O      7064 WAT       0.0727
   7065 WAT         5.6590   16.3440   18.5910 O      7065 WAT       0.0823
   7066 WAT         5.6590   16.3440   18.8410 O      7066 WAT       0.0802
   7067 WAT         5.6590   16.3440   19.0910 O      7067 WAT       0.0652
   7068 WAT         5.6590   16.3440   21.3410 O      7068 WAT       0.0568
   7069 WAT         5.6590   16.3440   21.5910 O      7069 WAT       0.0813
   7070 WAT         5.6590   16.3440   21.8410 O      7070 WAT       0.0960
   7071 WAT         5.6590   16.3440   22.0910 O      7071 WAT       0.0953
   7072 WAT         5.6590   16.3440   22.3410 O      7072 WAT       0.0828
   7073 WAT         5.6590   16.3440   22.5910 O      7073 WAT       0.0653
   7074 WAT         5.6590   16.3440   22.8410 O      7074 WAT       0.0485
   7075 WAT         5.6590   16.5940   11.5910 O      7075 WAT       0.0523
   7076 WAT         5.6590   16.5940   11.8410 O      7076 WAT       0.0787
   7077 WAT         5.6590   16.5940   12.0910 O      7077 WAT       0.1051
   7078 WAT         5.6590   16.5940   12.3410 O      7078 WAT       0.1267
   7079 WAT         5.6590   16.5940   12.5910 O      7079 WAT       0.1400
   7080 WAT         5.6590   16.5940   12.8410 O      7080 WAT       0.1403
   7081 WAT         5.6590   16.5940   13.0910 O      7081 WAT       0.1227
   7082 WAT         5.6590   16.5940   13.3410 O      7082 WAT       0.0898
   7083 WAT         5.6590   16.5940   13.5910 O      7083 WAT       0.0535
   7084 WAT         5.6590   16.5940   17.8410 O      7084 WAT       0.0457
   7085 WAT         5.6590   16.5940   18.0910 O      7085 WAT       0.0615
   7086 WAT         5.6590   16.5940   18.3410 O      7086 WAT       0.0744
   7087 WAT         5.6590   16.5940   18.5910 O      7087 WAT       0.0804
   7088 WAT         5.6590   16.5940   18.8410 O      7088 WAT       0.0750
   7089 WAT         5.6590   16.5940   19.0910 O      7089 WAT       0.0581
   7090 WAT         5.6590   16.5940   21.5910 O      7090 WAT       0.0629
   7091 WAT         5.6590   16.5940   21.8410 O      7091 WAT       0.0800
   7092 WAT         5.6590   16.5940   22.0910 O      7092 WAT       0.0858
   7093 WAT         5.6590   16.5940   22.3410 O      7093 WAT       0.0812
   7094 WAT         5.6590   16.5940   22.5910 O      7094 WAT       0.0711
   7095 WAT         5.6590   16.5940   22.8410 O      7095 WAT       0.0604
   7096 WAT         5.6590   16.5940   23.0910 O      7096 WAT       0.0512
   7097 WAT         5.6590   16.8440   11.3410 O      7097 WAT       0.0582
   7098 WAT         5.6590   16.8440   11.5910 O      7098 WAT       0.0877
   7099 WAT         5.6590   16.8440   11.8410 O      7099 WAT       0.1141
   7100 WAT         5.6590   16.8440   12.0910 O      7100 WAT       0.1294
   7101 WAT         5.6590   16.8440   12.3410 O      7101 WAT       0.1317
   7102 WAT         5.6590   16.8440   12.5910 O      7102 WAT       0.1236
   7103 WAT         5.6590   16.8440   12.8410 O      7103 WAT       0.1064
   7104 WAT         5.6590   16.8440   13.0910 O      7104 WAT       0.0807
   7105 WAT         5.6590   16.8440   13.3410 O      7105 WAT       0.0514
   7106 WAT         5.6590   16.8440   18.0910 O      7106 WAT       0.0543
   7107 WAT         5.6590   16.8440   18.3410 O      7107 WAT       0.0614
   7108 WAT         5.6590   16.8440   18.5910 O      7108 WAT       0.0618
   7109 WAT         5.6590   16.8440   18.8410 O      7109 WAT       0.0541
   7110 WAT         5.6590   16.8440   21.8410 O      7110 WAT       0.0557
   7111 WAT         5.6590   16.8440   22.0910 O      7111 WAT       0.0692
   7112 WAT         5.6590   16.8440   22.3410 O      7112 WAT       0.0790
   7113 WAT         5.6590   16.8440   22.5910 O      7113 WAT       0.0869
   7114 WAT         5.6590   16.8440   22.8410 O      7114 WAT       0.0922
   7115 WAT         5.6590   16.8440   23.0910 O      7115 WAT       0.0908
   7116 WAT         5.6590   16.8440   23.3410 O      7116 WAT       0.0800
   7117 WAT         5.6590   16.8440   23.5910 O      7117 WAT       0.0620
   7118 WAT         5.6590   17.0940   11.0910 O      7118 WAT       0.0547
   7119 WAT         5.6590   17.0940   11.3410 O      7119 WAT       0.0828
   7120 WAT         5.6590   17.0940   11.5910 O      7120 WAT       0.1077
   7121 WAT         5.6590   17.0940   11.8410 O      7121 WAT       0.1178
   7122 WAT         5.6590   17.0940   12.0910 O      7122 WAT       0.1108
   7123 WAT         5.6590   17.0940   12.3410 O      7123 WAT       0.0933
   7124 WAT         5.6590   17.0940   12.5910 O      7124 WAT       0.0729
   7125 WAT         5.6590   17.0940   12.8410 O      7125 WAT       0.0530
   7126 WAT         5.6590   17.0940   22.0910 O      7126 WAT       0.0541
   7127 WAT         5.6590   17.0940   22.3410 O      7127 WAT       0.0837
   7128 WAT         5.6590   17.0940   22.5910 O      7128 WAT       0.1221
   7129 WAT         5.6590   17.0940   22.8410 O      7129 WAT       0.1576
   7130 WAT         5.6590   17.0940   23.0910 O      7130 WAT       0.1695
   7131 WAT         5.6590   17.0940   23.3410 O      7131 WAT       0.1471
   7132 WAT         5.6590   17.0940   23.5910 O      7132 WAT       0.1019
   7133 WAT         5.6590   17.0940   23.8410 O      7133 WAT       0.0569
   7134 WAT         5.6590   17.3440   10.8410 O      7134 WAT       0.0472
   7135 WAT         5.6590   17.3440   11.0910 O      7135 WAT       0.0680
   7136 WAT         5.6590   17.3440   11.3410 O      7136 WAT       0.0890
   7137 WAT         5.6590   17.3440   11.5910 O      7137 WAT       0.0973
   7138 WAT         5.6590   17.3440   11.8410 O      7138 WAT       0.0877
   7139 WAT         5.6590   17.3440   12.0910 O      7139 WAT       0.0668
   7140 WAT         5.6590   17.3440   12.3410 O      7140 WAT       0.0452
   7141 WAT         5.6590   17.3440   22.3410 O      7141 WAT       0.0922
   7142 WAT         5.6590   17.3440   22.5910 O      7142 WAT       0.1657
   7143 WAT         5.6590   17.3440   22.8410 O      7143 WAT       0.2386
   7144 WAT         5.6590   17.3440   23.0910 O      7144 WAT       0.2652
   7145 WAT         5.6590   17.3440   23.3410 O      7145 WAT       0.2237
   7146 WAT         5.6590   17.3440   23.5910 O      7146 WAT       0.1420
   7147 WAT         5.6590   17.3440   23.8410 O      7147 WAT       0.0680
   7148 WAT         5.6590   17.5940   10.8410 O      7148 WAT       0.0535
   7149 WAT         5.6590   17.5940   11.0910 O      7149 WAT       0.0669
   7150 WAT         5.6590   17.5940   11.3410 O      7150 WAT       0.0731
   7151 WAT         5.6590   17.5940   11.5910 O      7151 WAT       0.0657
   7152 WAT         5.6590   17.5940   11.8410 O      7152 WAT       0.0478
   7153 WAT         5.6590   17.5940   22.3410 O      7153 WAT       0.0889
   7154 WAT         5.6590   17.5940   22.5910 O      7154 WAT       0.1788
   7155 WAT         5.6590   17.5940   22.8410 O      7155 WAT       0.2700
   7156 WAT         5.6590   17.5940   23.0910 O      7156 WAT       0.3018
   7157 WAT         5.6590   17.5940   23.3410 O      7157 WAT       0.2476
   7158 WAT         5.6590   17.5940   23.5910 O      7158 WAT       0.1478
   7159 WAT         5.6590   17.5940   23.8410 O      7159 WAT       0.0637
   7160 WAT         5.6590   17.8440   10.8410 O      7160 WAT       0.0511
   7161 WAT         5.6590   17.8440   11.0910 O      7161 WAT       0.0533
   7162 WAT         5.6590   17.8440   11.3410 O      7162 WAT       0.0471
   7163 WAT         5.6590   17.8440   22.3410 O      7163 WAT       0.0652
   7164 WAT         5.6590   17.8440   22.5910 O      7164 WAT       0.1382
   7165 WAT         5.6590   17.8440   22.8410 O      7165 WAT       0.2125
   7166 WAT         5.6590   17.8440   23.0910 O      7166 WAT       0.2361
   7167 WAT         5.6590   17.8440   23.3410 O      7167 WAT       0.1888
   7168 WAT         5.6590   17.8440   23.5910 O      7168 WAT       0.1075
   7169 WAT         5.6590   18.0940   22.5910 O      7169 WAT       0.0745
   7170 WAT         5.6590   18.0940   22.8410 O      7170 WAT       0.1146
   7171 WAT         5.6590   18.0940   23.0910 O      7171 WAT       0.1257
   7172 WAT         5.6590   18.0940   23.3410 O      7172 WAT       0.0978
   7173 WAT         5.6590   18.0940   23.5910 O      7173 WAT       0.0532
   7174 WAT         5.6590   18.3440    9.8410 O      7174 WAT       0.0454
   7175 WAT         5.6590   18.3440   10.0910 O      7175 WAT       0.0473
   7176 WAT         5.6590   18.3440   10.3410 O      7176 WAT       0.0467
   7177 WAT         5.6590   18.3440   23.0910 O      7177 WAT       0.0469
   7178 WAT         5.6590   18.5940    9.5910 O      7178 WAT       0.0457
   7179 WAT         5.6590   18.5940    9.8410 O      7179 WAT       0.0501
   7180 WAT         5.6590   18.5940   10.0910 O      7180 WAT       0.0510
   7181 WAT         5.6590   18.5940   10.3410 O      7181 WAT       0.0469
   7182 WAT         5.6590   18.8440    9.5910 O      7182 WAT       0.0476
   7183 WAT         5.6590   18.8440    9.8410 O      7183 WAT       0.0515
   7184 WAT         5.6590   18.8440   10.0910 O      7184 WAT       0.0504
   7185 WAT         5.6590   19.0940    9.5910 O      7185 WAT       0.0457
   7186 WAT         5.6590   19.0940    9.8410 O      7186 WAT       0.0480
   7187 WAT         5.6590   20.8440   11.0910 O      7187 WAT       0.0647
   7188 WAT         5.6590   20.8440   11.3410 O      7188 WAT       0.0826
   7189 WAT         5.6590   20.8440   11.5910 O      7189 WAT       0.0753
   7190 WAT         5.6590   20.8440   11.8410 O      7190 WAT       0.0472
   7191 WAT         5.6590   21.0940   10.8410 O      7191 WAT       0.0533
   7192 WAT         5.6590   21.0940   11.0910 O      7192 WAT       0.0995
   7193 WAT         5.6590   21.0940   11.3410 O      7193 WAT       0.1404
   7194 WAT         5.6590   21.0940   11.5910 O      7194 WAT       0.1408
   7195 WAT         5.6590   21.0940   11.8410 O      7195 WAT       0.0967
   7196 WAT         5.6590   21.3440   10.8410 O      7196 WAT       0.0572
   7197 WAT         5.6590   21.3440   11.0910 O      7197 WAT       0.1129
   7198 WAT         5.6590   21.3440   11.3410 O      7198 WAT       0.1718
   7199 WAT         5.6590   21.3440   11.5910 O      7199 WAT       0.1859
   7200 WAT         5.6590   21.3440   11.8410 O      7200 WAT       0.1373
   7201 WAT         5.6590   21.3440   12.0910 O      7201 WAT       0.0672
   7202 WAT         5.6590   21.5940   10.8410 O      7202 WAT       0.0473
   7203 WAT         5.6590   21.5940   11.0910 O      7203 WAT       0.0936
   7204 WAT         5.6590   21.5940   11.3410 O      7204 WAT       0.1497
   7205 WAT         5.6590   21.5940   11.5910 O      7205 WAT       0.1721
   7206 WAT         5.6590   21.5940   11.8410 O      7206 WAT       0.1351
   7207 WAT         5.6590   21.5940   12.0910 O      7207 WAT       0.0701
   7208 WAT         5.6590   21.8440   11.0910 O      7208 WAT       0.0568
   7209 WAT         5.6590   21.8440   11.3410 O      7209 WAT       0.0925
   7210 WAT         5.6590   21.8440   11.5910 O      7210 WAT       0.1112
   7211 WAT         5.6590   21.8440   11.8410 O      7211 WAT       0.0918
   7212 WAT         5.6590   21.8440   12.0910 O      7212 WAT       0.0501
   7213 WAT         5.6590   22.0940   11.5910 O      7213 WAT       0.0501
   7214 WAT         5.6590   23.3440    5.5910 O      7214 WAT       0.0524
   7215 WAT         5.6590   23.3440    5.8410 O      7215 WAT       0.0552
   7216 WAT         5.6590   23.3440    6.0910 O      7216 WAT       0.0489
   7217 WAT         5.6590   23.5940    5.0910 O      7217 WAT       0.0450
   7218 WAT         5.6590   23.5940    5.3410 O      7218 WAT       0.0660
   7219 WAT         5.6590   23.5940    5.5910 O      7219 WAT       0.0778
   7220 WAT         5.6590   23.5940    5.8410 O      7220 WAT       0.0743
   7221 WAT         5.6590   23.5940    6.0910 O      7221 WAT       0.0598
   7222 WAT         5.6590   23.8440    5.0910 O      7222 WAT       0.0636
   7223 WAT         5.6590   23.8440    5.3410 O      7223 WAT       0.0853
   7224 WAT         5.6590   23.8440    5.5910 O      7224 WAT       0.0906
   7225 WAT         5.6590   23.8440    5.8410 O      7225 WAT       0.0778
   7226 WAT         5.6590   23.8440    6.0910 O      7226 WAT       0.0568
   7227 WAT         5.6590   24.0940    4.8410 O      7227 WAT       0.0467
   7228 WAT         5.6590   24.0940    5.0910 O      7228 WAT       0.0697
   7229 WAT         5.6590   24.0940    5.3410 O      7229 WAT       0.0842
   7230 WAT         5.6590   24.0940    5.5910 O      7230 WAT       0.0803
   7231 WAT         5.6590   24.0940    5.8410 O      7231 WAT       0.0619
   7232 WAT         5.6590   24.3440    5.0910 O      7232 WAT       0.0569
   7233 WAT         5.6590   24.3440    5.3410 O      7233 WAT       0.0616
   7234 WAT         5.6590   24.3440    5.5910 O      7234 WAT       0.0525
   7235 WAT         5.6590   26.3440    3.0910 O      7235 WAT       0.0458
   7236 WAT         5.6590   26.5940    2.5910 O      7236 WAT       0.0492
   7237 WAT         5.6590   26.5940    2.8410 O      7237 WAT       0.0565
   7238 WAT         5.6590   26.5940    3.0910 O      7238 WAT       0.0518
   7239 WAT         5.6590   26.8440    2.5910 O      7239 WAT       0.0569
   7240 WAT         5.6590   26.8440    2.8410 O      7240 WAT       0.0592
   7241 WAT         5.6590   26.8440    3.0910 O      7241 WAT       0.0480
   7242 WAT         5.6590   27.0940    2.5910 O      7242 WAT       0.0514
   7243 WAT         5.6590   27.0940    2.8410 O      7243 WAT       0.0485
   7244 WAT         5.9090    9.5940   23.5910 O      7244 WAT       0.0496
   7245 WAT         5.9090    9.5940   23.8410 O      7245 WAT       0.0478
   7246 WAT         5.9090    9.8440   21.0910 O      7246 WAT       0.0471
   7247 WAT         5.9090    9.8440   21.3410 O      7247 WAT       0.0539
   7248 WAT         5.9090    9.8440   21.5910 O      7248 WAT       0.0562
   7249 WAT         5.9090    9.8440   21.8410 O      7249 WAT       0.0535
   7250 WAT         5.9090    9.8440   22.0910 O      7250 WAT       0.0468
   7251 WAT         5.9090    9.8440   23.3410 O      7251 WAT       0.0538
   7252 WAT         5.9090    9.8440   23.5910 O      7252 WAT       0.0622
   7253 WAT         5.9090    9.8440   23.8410 O      7253 WAT       0.0597
   7254 WAT         5.9090    9.8440   24.0910 O      7254 WAT       0.0462
   7255 WAT         5.9090   10.0940   20.8410 O      7255 WAT       0.0466
   7256 WAT         5.9090   10.0940   21.0910 O      7256 WAT       0.0556
   7257 WAT         5.9090   10.0940   21.3410 O      7257 WAT       0.0629
   7258 WAT         5.9090   10.0940   21.5910 O      7258 WAT       0.0659
   7259 WAT         5.9090   10.0940   21.8410 O      7259 WAT       0.0637
   7260 WAT         5.9090   10.0940   22.0910 O      7260 WAT       0.0569
   7261 WAT         5.9090   10.0940   22.3410 O      7261 WAT       0.0485
   7262 WAT         5.9090   10.0940   23.0910 O      7262 WAT       0.0496
   7263 WAT         5.9090   10.0940   23.3410 O      7263 WAT       0.0629
   7264 WAT         5.9090   10.0940   23.5910 O      7264 WAT       0.0732
   7265 WAT         5.9090   10.0940   23.8410 O      7265 WAT       0.0712
   7266 WAT         5.9090   10.0940   24.0910 O      7266 WAT       0.0561
   7267 WAT         5.9090   10.3440   20.8410 O      7267 WAT       0.0495
   7268 WAT         5.9090   10.3440   21.0910 O      7268 WAT       0.0566
   7269 WAT         5.9090   10.3440   21.3410 O      7269 WAT       0.0626
   7270 WAT         5.9090   10.3440   21.5910 O      7270 WAT       0.0653
   7271 WAT         5.9090   10.3440   21.8410 O      7271 WAT       0.0634
   7272 WAT         5.9090   10.3440   22.0910 O      7272 WAT       0.0578
   7273 WAT         5.9090   10.3440   22.3410 O      7273 WAT       0.0508
   7274 WAT         5.9090   10.3440   22.5910 O      7274 WAT       0.0453
   7275 WAT         5.9090   10.3440   23.0910 O      7275 WAT       0.0513
   7276 WAT         5.9090   10.3440   23.3410 O      7276 WAT       0.0645
   7277 WAT         5.9090   10.3440   23.5910 O      7277 WAT       0.0766
   7278 WAT         5.9090   10.3440   23.8410 O      7278 WAT       0.0771
   7279 WAT         5.9090   10.3440   24.0910 O      7279 WAT       0.0634
   7280 WAT         5.9090   10.5940   20.8410 O      7280 WAT       0.0458
   7281 WAT         5.9090   10.5940   21.0910 O      7281 WAT       0.0495
   7282 WAT         5.9090   10.5940   21.3410 O      7282 WAT       0.0530
   7283 WAT         5.9090   10.5940   21.5910 O      7283 WAT       0.0546
   7284 WAT         5.9090   10.5940   21.8410 O      7284 WAT       0.0529
   7285 WAT         5.9090   10.5940   22.0910 O      7285 WAT       0.0489
   7286 WAT         5.9090   10.5940   23.0910 O      7286 WAT       0.0453
   7287 WAT         5.9090   10.5940   23.3410 O      7287 WAT       0.0565
   7288 WAT         5.9090   10.5940   23.5910 O      7288 WAT       0.0687
   7289 WAT         5.9090   10.5940   23.8410 O      7289 WAT       0.0724
   7290 WAT         5.9090   10.5940   24.0910 O      7290 WAT       0.0632
   7291 WAT         5.9090   10.5940   24.3410 O      7291 WAT       0.0456
   7292 WAT         5.9090   10.8440   23.5910 O      7292 WAT       0.0522
   7293 WAT         5.9090   10.8440   23.8410 O      7293 WAT       0.0579
   7294 WAT         5.9090   10.8440   24.0910 O      7294 WAT       0.0541
   7295 WAT         5.9090   13.8440   22.3410 O      7295 WAT       0.0507
   7296 WAT         5.9090   13.8440   22.5910 O      7296 WAT       0.0550
   7297 WAT         5.9090   13.8440   22.8410 O      7297 WAT       0.0528
   7298 WAT         5.9090   14.0940   21.5910 O      7298 WAT       0.0529
   7299 WAT         5.9090   14.0940   21.8410 O      7299 WAT       0.0679
   7300 WAT         5.9090   14.0940   22.0910 O      7300 WAT       0.0782
   7301 WAT         5.9090   14.0940   22.3410 O      7301 WAT       0.0825
   7302 WAT         5.9090   14.0940   22.5910 O      7302 WAT       0.0796
   7303 WAT         5.9090   14.0940   22.8410 O      7303 WAT       0.0694
   7304 WAT         5.9090   14.0940   23.0910 O      7304 WAT       0.0537
   7305 WAT         5.9090   14.3440   21.3410 O      7305 WAT       0.0665
   7306 WAT         5.9090   14.3440   21.5910 O      7306 WAT       0.0913
   7307 WAT         5.9090   14.3440   21.8410 O      7307 WAT       0.1065
   7308 WAT         5.9090   14.3440   22.0910 O      7308 WAT       0.1091
   7309 WAT         5.9090   14.3440   22.3410 O      7309 WAT       0.1014
   7310 WAT         5.9090   14.3440   22.5910 O      7310 WAT       0.0868
   7311 WAT         5.9090   14.3440   22.8410 O      7311 WAT       0.0683
   7312 WAT         5.9090   14.3440   23.0910 O      7312 WAT       0.0487
   7313 WAT         5.9090   14.5940   21.0910 O      7313 WAT       0.0596
   7314 WAT         5.9090   14.5940   21.3410 O      7314 WAT       0.0921
   7315 WAT         5.9090   14.5940   21.5910 O      7315 WAT       0.1163
   7316 WAT         5.9090   14.5940   21.8410 O      7316 WAT       0.1229
   7317 WAT         5.9090   14.5940   22.0910 O      7317 WAT       0.1129
   7318 WAT         5.9090   14.5940   22.3410 O      7318 WAT       0.0935
   7319 WAT         5.9090   14.5940   22.5910 O      7319 WAT       0.0715
   7320 WAT         5.9090   14.5940   22.8410 O      7320 WAT       0.0509
   7321 WAT         5.9090   14.8440   21.0910 O      7321 WAT       0.0669
   7322 WAT         5.9090   14.8440   21.3410 O      7322 WAT       0.0956
   7323 WAT         5.9090   14.8440   21.5910 O      7323 WAT       0.1105
   7324 WAT         5.9090   14.8440   21.8410 O      7324 WAT       0.1063
   7325 WAT         5.9090   14.8440   22.0910 O      7325 WAT       0.0887
   7326 WAT         5.9090   14.8440   22.3410 O      7326 WAT       0.0668
   7327 WAT         5.9090   14.8440   22.5910 O      7327 WAT       0.0466
   7328 WAT         5.9090   15.0940   21.0910 O      7328 WAT       0.0603
   7329 WAT         5.9090   15.0940   21.3410 O      7329 WAT       0.0794
   7330 WAT         5.9090   15.0940   21.5910 O      7330 WAT       0.0846
   7331 WAT         5.9090   15.0940   21.8410 O      7331 WAT       0.0754
   7332 WAT         5.9090   15.0940   22.0910 O      7332 WAT       0.0589
   7333 WAT         5.9090   15.3440   21.0910 O      7333 WAT       0.0501
   7334 WAT         5.9090   15.3440   21.3410 O      7334 WAT       0.0621
   7335 WAT         5.9090   15.3440   21.5910 O      7335 WAT       0.0635
   7336 WAT         5.9090   15.3440   21.8410 O      7336 WAT       0.0552
   7337 WAT         5.9090   15.5940   21.0910 O      7337 WAT       0.0454
   7338 WAT         5.9090   15.5940   21.3410 O      7338 WAT       0.0562
   7339 WAT         5.9090   15.5940   21.5910 O      7339 WAT       0.0591
   7340 WAT         5.9090   15.5940   21.8410 O      7340 WAT       0.0536
   7341 WAT         5.9090   15.8440   13.0910 O      7341 WAT       0.0545
   7342 WAT         5.9090   15.8440   13.3410 O      7342 WAT       0.0647
   7343 WAT         5.9090   15.8440   13.5910 O      7343 WAT       0.0658
   7344 WAT         5.9090   15.8440   13.8410 O      7344 WAT       0.0587
   7345 WAT         5.9090   15.8440   14.0910 O      7345 WAT       0.0477
   7346 WAT         5.9090   15.8440   18.3410 O      7346 WAT       0.0482
   7347 WAT         5.9090   15.8440   18.5910 O      7347 WAT       0.0542
   7348 WAT         5.9090   15.8440   18.8410 O      7348 WAT       0.0527
   7349 WAT         5.9090   15.8440   21.0910 O      7349 WAT       0.0451
   7350 WAT         5.9090   15.8440   21.3410 O      7350 WAT       0.0588
   7351 WAT         5.9090   15.8440   21.5910 O      7351 WAT       0.0657
   7352 WAT         5.9090   15.8440   21.8410 O      7352 WAT       0.0627
   7353 WAT         5.9090   15.8440   22.0910 O      7353 WAT       0.0514
   7354 WAT         5.9090   16.0940   12.5910 O      7354 WAT       0.0690
   7355 WAT         5.9090   16.0940   12.8410 O      7355 WAT       0.0939
   7356 WAT         5.9090   16.0940   13.0910 O      7356 WAT       0.1086
   7357 WAT         5.9090   16.0940   13.3410 O      7357 WAT       0.1051
   7358 WAT         5.9090   16.0940   13.5910 O      7358 WAT       0.0853
   7359 WAT         5.9090   16.0940   13.8410 O      7359 WAT       0.0600
   7360 WAT         5.9090   16.0940   18.0910 O      7360 WAT       0.0553
   7361 WAT         5.9090   16.0940   18.3410 O      7361 WAT       0.0718
   7362 WAT         5.9090   16.0940   18.5910 O      7362 WAT       0.0807
   7363 WAT         5.9090   16.0940   18.8410 O      7363 WAT       0.0766
   7364 WAT         5.9090   16.0940   19.0910 O      7364 WAT       0.0601
   7365 WAT         5.9090   16.0940   21.3410 O      7365 WAT       0.0598
   7366 WAT         5.9090   16.0940   21.5910 O      7366 WAT       0.0712
   7367 WAT         5.9090   16.0940   21.8410 O      7367 WAT       0.0705
   7368 WAT         5.9090   16.0940   22.0910 O      7368 WAT       0.0588
   7369 WAT         5.9090   16.3440   12.0910 O      7369 WAT       0.0674
   7370 WAT         5.9090   16.3440   12.3410 O      7370 WAT       0.0989
   7371 WAT         5.9090   16.3440   12.5910 O      7371 WAT       0.1321
   7372 WAT         5.9090   16.3440   12.8410 O      7372 WAT       0.1550
   7373 WAT         5.9090   16.3440   13.0910 O      7373 WAT       0.1534
   7374 WAT         5.9090   16.3440   13.3410 O      7374 WAT       0.1246
   7375 WAT         5.9090   16.3440   13.5910 O      7375 WAT       0.0827
   7376 WAT         5.9090   16.3440   13.8410 O      7376 WAT       0.0460
   7377 WAT         5.9090   16.3440   18.0910 O      7377 WAT       0.0614
   7378 WAT         5.9090   16.3440   18.3410 O      7378 WAT       0.0810
   7379 WAT         5.9090   16.3440   18.5910 O      7379 WAT       0.0917
   7380 WAT         5.9090   16.3440   18.8410 O      7380 WAT       0.0863
   7381 WAT         5.9090   16.3440   19.0910 O      7381 WAT       0.0658
   7382 WAT         5.9090   16.3440   21.3410 O      7382 WAT       0.0513
   7383 WAT         5.9090   16.3440   21.5910 O      7383 WAT       0.0656
   7384 WAT         5.9090   16.3440   21.8410 O      7384 WAT       0.0683
   7385 WAT         5.9090   16.3440   22.0910 O      7385 WAT       0.0594
   7386 WAT         5.9090   16.3440   22.3410 O      7386 WAT       0.0451
   7387 WAT         5.9090   16.5940   11.5910 O      7387 WAT       0.0552
   7388 WAT         5.9090   16.5940   11.8410 O      7388 WAT       0.0844
   7389 WAT         5.9090   16.5940   12.0910 O      7389 WAT       0.1168
   7390 WAT         5.9090   16.5940   12.3410 O      7390 WAT       0.1477
   7391 WAT         5.9090   16.5940   12.5910 O      7391 WAT       0.1701
   7392 WAT         5.9090   16.5940   12.8410 O      7392 WAT       0.1728
   7393 WAT         5.9090   16.5940   13.0910 O      7393 WAT       0.1481
   7394 WAT         5.9090   16.5940   13.3410 O      7394 WAT       0.1033
   7395 WAT         5.9090   16.5940   13.5910 O      7395 WAT       0.0576
   7396 WAT         5.9090   16.5940   18.0910 O      7396 WAT       0.0520
   7397 WAT         5.9090   16.5940   18.3410 O      7397 WAT       0.0680
   7398 WAT         5.9090   16.5940   18.5910 O      7398 WAT       0.0766
   7399 WAT         5.9090   16.5940   18.8410 O      7399 WAT       0.0715
   7400 WAT         5.9090   16.5940   19.0910 O      7400 WAT       0.0535
   7401 WAT         5.9090   16.5940   21.5910 O      7401 WAT       0.0484
   7402 WAT         5.9090   16.5940   21.8410 O      7402 WAT       0.0550
   7403 WAT         5.9090   16.5940   22.0910 O      7403 WAT       0.0524
   7404 WAT         5.9090   16.8440   11.3410 O      7404 WAT       0.0594
   7405 WAT         5.9090   16.8440   11.5910 O      7405 WAT       0.0895
   7406 WAT         5.9090   16.8440   11.8410 O      7406 WAT       0.1186
   7407 WAT         5.9090   16.8440   12.0910 O      7407 WAT       0.1394
   7408 WAT         5.9090   16.8440   12.3410 O      7408 WAT       0.1490
   7409 WAT         5.9090   16.8440   12.5910 O      7409 WAT       0.1464
   7410 WAT         5.9090   16.8440   12.8410 O      7410 WAT       0.1283
   7411 WAT         5.9090   16.8440   13.0910 O      7411 WAT       0.0955
   7412 WAT         5.9090   16.8440   13.3410 O      7412 WAT       0.0577
   7413 WAT         5.9090   16.8440   18.5910 O      7413 WAT       0.0475
   7414 WAT         5.9090   16.8440   22.3410 O      7414 WAT       0.0459
   7415 WAT         5.9090   16.8440   22.5910 O      7415 WAT       0.0513
   7416 WAT         5.9090   16.8440   22.8410 O      7416 WAT       0.0571
   7417 WAT         5.9090   16.8440   23.0910 O      7417 WAT       0.0583
   7418 WAT         5.9090   16.8440   23.3410 O      7418 WAT       0.0517
   7419 WAT         5.9090   17.0940   11.0910 O      7419 WAT       0.0548
   7420 WAT         5.9090   17.0940   11.3410 O      7420 WAT       0.0816
   7421 WAT         5.9090   17.0940   11.5910 O      7421 WAT       0.1062
   7422 WAT         5.9090   17.0940   11.8410 O      7422 WAT       0.1183
   7423 WAT         5.9090   17.0940   12.0910 O      7423 WAT       0.1152
   7424 WAT         5.9090   17.0940   12.3410 O      7424 WAT       0.1019
   7425 WAT         5.9090   17.0940   12.5910 O      7425 WAT       0.0839
   7426 WAT         5.9090   17.0940   12.8410 O      7426 WAT       0.0626
   7427 WAT         5.9090   17.0940   22.3410 O      7427 WAT       0.0546
   7428 WAT         5.9090   17.0940   22.5910 O      7428 WAT       0.0848
   7429 WAT         5.9090   17.0940   22.8410 O      7429 WAT       0.1147
   7430 WAT         5.9090   17.0940   23.0910 O      7430 WAT       0.1266
   7431 WAT         5.9090   17.0940   23.3410 O      7431 WAT       0.1107
   7432 WAT         5.9090   17.0940   23.5910 O      7432 WAT       0.0760
   7433 WAT         5.9090   17.3440   10.8410 O      7433 WAT       0.0477
   7434 WAT         5.9090   17.3440   11.0910 O      7434 WAT       0.0660
   7435 WAT         5.9090   17.3440   11.3410 O      7435 WAT       0.0848
   7436 WAT         5.9090   17.3440   11.5910 O      7436 WAT       0.0925
   7437 WAT         5.9090   17.3440   11.8410 O      7437 WAT       0.0846
   7438 WAT         5.9090   17.3440   12.0910 O      7438 WAT       0.0665
   7439 WAT         5.9090   17.3440   12.3410 O      7439 WAT       0.0473
   7440 WAT         5.9090   17.3440   22.3410 O      7440 WAT       0.0664
   7441 WAT         5.9090   17.3440   22.5910 O      7441 WAT       0.1253
   7442 WAT         5.9090   17.3440   22.8410 O      7442 WAT       0.1855
   7443 WAT         5.9090   17.3440   23.0910 O      7443 WAT       0.2098
   7444 WAT         5.9090   17.3440   23.3410 O      7444 WAT       0.1788
   7445 WAT         5.9090   17.3440   23.5910 O      7445 WAT       0.1142
   7446 WAT         5.9090   17.3440   23.8410 O      7446 WAT       0.0546
   7447 WAT         5.9090   17.5940   10.8410 O      7447 WAT       0.0523
   7448 WAT         5.9090   17.5940   11.0910 O      7448 WAT       0.0629
   7449 WAT         5.9090   17.5940   11.3410 O      7449 WAT       0.0673
   7450 WAT         5.9090   17.5940   11.5910 O      7450 WAT       0.0600
   7451 WAT         5.9090   17.5940   22.3410 O      7451 WAT       0.0668
   7452 WAT         5.9090   17.5940   22.5910 O      7452 WAT       0.1385
   7453 WAT         5.9090   17.5940   22.8410 O      7453 WAT       0.2131
   7454 WAT         5.9090   17.5940   23.0910 O      7454 WAT       0.2415
   7455 WAT         5.9090   17.5940   23.3410 O      7455 WAT       0.2007
   7456 WAT         5.9090   17.5940   23.5910 O      7456 WAT       0.1215
   7457 WAT         5.9090   17.5940   23.8410 O      7457 WAT       0.0531
   7458 WAT         5.9090   17.8440   10.8410 O      7458 WAT       0.0484
   7459 WAT         5.9090   17.8440   11.0910 O      7459 WAT       0.0486
   7460 WAT         5.9090   17.8440   22.3410 O      7460 WAT       0.0486
   7461 WAT         5.9090   17.8440   22.5910 O      7461 WAT       0.1059
   7462 WAT         5.9090   17.8440   22.8410 O      7462 WAT       0.1654
   7463 WAT         5.9090   17.8440   23.0910 O      7463 WAT       0.1864
   7464 WAT         5.9090   17.8440   23.3410 O      7464 WAT       0.1512
   7465 WAT         5.9090   17.8440   23.5910 O      7465 WAT       0.0876
   7466 WAT         5.9090   18.0940   22.5910 O      7466 WAT       0.0542
   7467 WAT         5.9090   18.0940   22.8410 O      7467 WAT       0.0853
   7468 WAT         5.9090   18.0940   23.0910 O      7468 WAT       0.0952
   7469 WAT         5.9090   18.0940   23.3410 O      7469 WAT       0.0754
   7470 WAT         5.9090   18.3440    9.8410 O      7470 WAT       0.0479
   7471 WAT         5.9090   18.3440   10.0910 O      7471 WAT       0.0479
   7472 WAT         5.9090   18.5940    9.5910 O      7472 WAT       0.0481
   7473 WAT         5.9090   18.5940    9.8410 O      7473 WAT       0.0517
   7474 WAT         5.9090   18.5940   10.0910 O      7474 WAT       0.0506
   7475 WAT         5.9090   18.8440    9.5910 O      7475 WAT       0.0496
   7476 WAT         5.9090   18.8440    9.8410 O      7476 WAT       0.0531
   7477 WAT         5.9090   18.8440   10.0910 O      7477 WAT       0.0505
   7478 WAT         5.9090   19.0940    9.5910 O      7478 WAT       0.0478
   7479 WAT         5.9090   19.0940    9.8410 O      7479 WAT       0.0502
   7480 WAT         5.9090   19.0940   10.0910 O      7480 WAT       0.0460
   7481 WAT         5.9090   20.8440   11.0910 O      7481 WAT       0.0468
   7482 WAT         5.9090   20.8440   11.3410 O      7482 WAT       0.0571
   7483 WAT         5.9090   20.8440   11.5910 O      7483 WAT       0.0499
   7484 WAT         5.9090   21.0940   11.0910 O      7484 WAT       0.0735
   7485 WAT         5.9090   21.0940   11.3410 O      7485 WAT       0.1000
   7486 WAT         5.9090   21.0940   11.5910 O      7486 WAT       0.0973
   7487 WAT         5.9090   21.0940   11.8410 O      7487 WAT       0.0651
   7488 WAT         5.9090   21.3440   10.8410 O      7488 WAT       0.0470
   7489 WAT         5.9090   21.3440   11.0910 O      7489 WAT       0.0871
   7490 WAT         5.9090   21.3440   11.3410 O      7490 WAT       0.1282
   7491 WAT         5.9090   21.3440   11.5910 O      7491 WAT       0.1357
   7492 WAT         5.9090   21.3440   11.8410 O      7492 WAT       0.0988
   7493 WAT         5.9090   21.3440   12.0910 O      7493 WAT       0.0479
   7494 WAT         5.9090   21.5940    9.3410 O      7494 WAT       0.0450
   7495 WAT         5.9090   21.5940   11.0910 O      7495 WAT       0.0774
   7496 WAT         5.9090   21.5940   11.3410 O      7496 WAT       0.1193
   7497 WAT         5.9090   21.5940   11.5910 O      7497 WAT       0.1350
   7498 WAT         5.9090   21.5940   11.8410 O      7498 WAT       0.1055
   7499 WAT         5.9090   21.5940   12.0910 O      7499 WAT       0.0551
   7500 WAT         5.9090   21.8440    9.5910 O      7500 WAT       0.0462
   7501 WAT         5.9090   21.8440   11.0910 O      7501 WAT       0.0525
   7502 WAT         5.9090   21.8440   11.3410 O      7502 WAT       0.0809
   7503 WAT         5.9090   21.8440   11.5910 O      7503 WAT       0.0957
   7504 WAT         5.9090   21.8440   11.8410 O      7504 WAT       0.0791
   7505 WAT         5.9090   22.0940   11.5910 O      7505 WAT       0.0484
   7506 WAT         5.9090   23.3440    5.8410 O      7506 WAT       0.0450
   7507 WAT         5.9090   23.3440    6.0910 O      7507 WAT       0.0454
   7508 WAT         5.9090   23.5940    5.3410 O      7508 WAT       0.0450
   7509 WAT         5.9090   23.5940    5.5910 O      7509 WAT       0.0582
   7510 WAT         5.9090   23.5940    5.8410 O      7510 WAT       0.0636
   7511 WAT         5.9090   23.5940    6.0910 O      7511 WAT       0.0604
   7512 WAT         5.9090   23.5940    6.3410 O      7512 WAT       0.0517
   7513 WAT         5.9090   23.5940    8.0910 O      7513 WAT       0.0462
   7514 WAT         5.9090   23.5940    8.3410 O      7514 WAT       0.0507
   7515 WAT         5.9090   23.5940    8.5910 O      7515 WAT       0.0508
   7516 WAT         5.9090   23.8440    5.3410 O      7516 WAT       0.0580
   7517 WAT         5.9090   23.8440    5.5910 O      7517 WAT       0.0692
   7518 WAT         5.9090   23.8440    5.8410 O      7518 WAT       0.0698
   7519 WAT         5.9090   23.8440    6.0910 O      7519 WAT       0.0618
   7520 WAT         5.9090   23.8440    6.3410 O      7520 WAT       0.0502
   7521 WAT         5.9090   23.8440    7.8410 O      7521 WAT       0.0462
   7522 WAT         5.9090   23.8440    8.0910 O      7522 WAT       0.0534
   7523 WAT         5.9090   23.8440    8.3410 O      7523 WAT       0.0585
   7524 WAT         5.9090   23.8440    8.5910 O      7524 WAT       0.0568
   7525 WAT         5.9090   23.8440    8.8410 O      7525 WAT       0.0458
   7526 WAT         5.9090   24.0940    5.3410 O      7526 WAT       0.0576
   7527 WAT         5.9090   24.0940    5.5910 O      7527 WAT       0.0625
   7528 WAT         5.9090   24.0940    5.8410 O      7528 WAT       0.0577
   7529 WAT         5.9090   24.0940    6.0910 O      7529 WAT       0.0476
   7530 WAT         5.9090   24.0940    8.0910 O      7530 WAT       0.0478
   7531 WAT         5.9090   24.0940    8.3410 O      7531 WAT       0.0525
   7532 WAT         5.9090   24.0940    8.5910 O      7532 WAT       0.0500
   7533 WAT         5.9090   26.3440    2.8410 O      7533 WAT       0.0552
   7534 WAT         5.9090   26.3440    3.0910 O      7534 WAT       0.0596
   7535 WAT         5.9090   26.3440    3.3410 O      7535 WAT       0.0500
   7536 WAT         5.9090   26.5940    2.5910 O      7536 WAT       0.0620
   7537 WAT         5.9090   26.5940    2.8410 O      7537 WAT       0.0749
   7538 WAT         5.9090   26.5940    3.0910 O      7538 WAT       0.0717
   7539 WAT         5.9090   26.5940    3.3410 O      7539 WAT       0.0527
   7540 WAT         5.9090   26.8440    2.5910 O      7540 WAT       0.0708
   7541 WAT         5.9090   26.8440    2.8410 O      7541 WAT       0.0779
   7542 WAT         5.9090   26.8440    3.0910 O      7542 WAT       0.0660
   7543 WAT         5.9090   27.0940    2.5910 O      7543 WAT       0.0589
   7544 WAT         5.9090   27.0940    2.8410 O      7544 WAT       0.0590
   7545 WAT         6.1590    9.3440   23.3410 O      7545 WAT       0.0494
   7546 WAT         6.1590    9.3440   23.5910 O      7546 WAT       0.0515
   7547 WAT         6.1590    9.5940   21.0910 O      7547 WAT       0.0534
   7548 WAT         6.1590    9.5940   21.3410 O      7548 WAT       0.0581
   7549 WAT         6.1590    9.5940   21.5910 O      7549 WAT       0.0567
   7550 WAT         6.1590    9.5940   21.8410 O      7550 WAT       0.0501
   7551 WAT         6.1590    9.5940   23.0910 O      7551 WAT       0.0526
   7552 WAT         6.1590    9.5940   23.3410 O      7552 WAT       0.0659
   7553 WAT         6.1590    9.5940   23.5910 O      7553 WAT       0.0687
   7554 WAT         6.1590    9.5940   23.8410 O      7554 WAT       0.0568
   7555 WAT         6.1590    9.8440   20.5910 O      7555 WAT       0.0457
   7556 WAT         6.1590    9.8440   20.8410 O      7556 WAT       0.0558
   7557 WAT         6.1590    9.8440   21.0910 O      7557 WAT       0.0650
   7558 WAT         6.1590    9.8440   21.3410 O      7558 WAT       0.0702
   7559 WAT         6.1590    9.8440   21.5910 O      7559 WAT       0.0688
   7560 WAT         6.1590    9.8440   21.8410 O      7560 WAT       0.0617
   7561 WAT         6.1590    9.8440   22.0910 O      7561 WAT       0.0519
   7562 WAT         6.1590    9.8440   22.8410 O      7562 WAT       0.0487
   7563 WAT         6.1590    9.8440   23.0910 O      7563 WAT       0.0660
   7564 WAT         6.1590    9.8440   23.3410 O      7564 WAT       0.0847
   7565 WAT         6.1590    9.8440   23.5910 O      7565 WAT       0.0905
   7566 WAT         6.1590    9.8440   23.8410 O      7566 WAT       0.0765
   7567 WAT         6.1590    9.8440   24.0910 O      7567 WAT       0.0502
   7568 WAT         6.1590   10.0940   20.5910 O      7568 WAT       0.0519
   7569 WAT         6.1590   10.0940   20.8410 O      7569 WAT       0.0599
   7570 WAT         6.1590   10.0940   21.0910 O      7570 WAT       0.0675
   7571 WAT         6.1590   10.0940   21.3410 O      7571 WAT       0.0720
   7572 WAT         6.1590   10.0940   21.5910 O      7572 WAT       0.0711
   7573 WAT         6.1590   10.0940   21.8410 O      7573 WAT       0.0649
   7574 WAT         6.1590   10.0940   22.0910 O      7574 WAT       0.0558
   7575 WAT         6.1590   10.0940   22.3410 O      7575 WAT       0.0477
   7576 WAT         6.1590   10.0940   22.5910 O      7576 WAT       0.0451
   7577 WAT         6.1590   10.0940   22.8410 O      7577 WAT       0.0529
   7578 WAT         6.1590   10.0940   23.0910 O      7578 WAT       0.0729
   7579 WAT         6.1590   10.0940   23.3410 O      7579 WAT       0.0973
   7580 WAT         6.1590   10.0940   23.5910 O      7580 WAT       0.1095
   7581 WAT         6.1590   10.0940   23.8410 O      7581 WAT       0.0974
   7582 WAT         6.1590   10.0940   24.0910 O      7582 WAT       0.0672
   7583 WAT         6.1590   10.3440   20.3410 O      7583 WAT       0.0466
   7584 WAT         6.1590   10.3440   20.5910 O      7584 WAT       0.0510
   7585 WAT         6.1590   10.3440   20.8410 O      7585 WAT       0.0551
   7586 WAT         6.1590   10.3440   21.0910 O      7586 WAT       0.0593
   7587 WAT         6.1590   10.3440   21.3410 O      7587 WAT       0.0621
   7588 WAT         6.1590   10.3440   21.5910 O      7588 WAT       0.0613
   7589 WAT         6.1590   10.3440   21.8410 O      7589 WAT       0.0565
   7590 WAT         6.1590   10.3440   22.0910 O      7590 WAT       0.0497
   7591 WAT         6.1590   10.3440   22.8410 O      7591 WAT       0.0490
   7592 WAT         6.1590   10.3440   23.0910 O      7592 WAT       0.0682
   7593 WAT         6.1590   10.3440   23.3410 O      7593 WAT       0.0958
   7594 WAT         6.1590   10.3440   23.5910 O      7594 WAT       0.1155
   7595 WAT         6.1590   10.3440   23.8410 O      7595 WAT       0.1106
   7596 WAT         6.1590   10.3440   24.0910 O      7596 WAT       0.0822
   7597 WAT         6.1590   10.3440   24.3410 O      7597 WAT       0.0479
   7598 WAT         6.1590   10.5940   21.3410 O      7598 WAT       0.0452
   7599 WAT         6.1590   10.5940   23.0910 O      7599 WAT       0.0537
   7600 WAT         6.1590   10.5940   23.3410 O      7600 WAT       0.0792
   7601 WAT         6.1590   10.5940   23.5910 O      7601 WAT       0.1031
   7602 WAT         6.1590   10.5940   23.8410 O      7602 WAT       0.1076
   7603 WAT         6.1590   10.5940   24.0910 O      7603 WAT       0.0875
   7604 WAT         6.1590   10.5940   24.3410 O      7604 WAT       0.0559
   7605 WAT         6.1590   10.8440   23.3410 O      7605 WAT       0.0551
   7606 WAT         6.1590   10.8440   23.5910 O      7606 WAT       0.0775
   7607 WAT         6.1590   10.8440   23.8410 O      7607 WAT       0.0888
   7608 WAT         6.1590   10.8440   24.0910 O      7608 WAT       0.0798
   7609 WAT         6.1590   10.8440   24.3410 O      7609 WAT       0.0565
   7610 WAT         6.1590   11.0940   23.5910 O      7610 WAT       0.0500
   7611 WAT         6.1590   11.0940   23.8410 O      7611 WAT       0.0633
   7612 WAT         6.1590   11.0940   24.0910 O      7612 WAT       0.0633
   7613 WAT         6.1590   11.0940   24.3410 O      7613 WAT       0.0500
   7614 WAT         6.1590   11.3440   24.0910 O      7614 WAT       0.0454
   7615 WAT         6.1590   13.8440   22.0910 O      7615 WAT       0.0456
   7616 WAT         6.1590   13.8440   22.3410 O      7616 WAT       0.0545
   7617 WAT         6.1590   13.8440   22.5910 O      7617 WAT       0.0605
   7618 WAT         6.1590   13.8440   22.8410 O      7618 WAT       0.0611
   7619 WAT         6.1590   13.8440   23.0910 O      7619 WAT       0.0553
   7620 WAT         6.1590   14.0940   21.3410 O      7620 WAT       0.0477
   7621 WAT         6.1590   14.0940   21.5910 O      7621 WAT       0.0653
   7622 WAT         6.1590   14.0940   21.8410 O      7622 WAT       0.0771
   7623 WAT         6.1590   14.0940   22.0910 O      7623 WAT       0.0825
   7624 WAT         6.1590   14.0940   22.3410 O      7624 WAT       0.0831
   7625 WAT         6.1590   14.0940   22.5910 O      7625 WAT       0.0791
   7626 WAT         6.1590   14.0940   22.8410 O      7626 WAT       0.0701
   7627 WAT         6.1590   14.0940   23.0910 O      7627 WAT       0.0567
   7628 WAT         6.1590   14.3440   21.0910 O      7628 WAT       0.0612
   7629 WAT         6.1590   14.3440   21.3410 O      7629 WAT       0.0924
   7630 WAT         6.1590   14.3440   21.5910 O      7630 WAT       0.1145
   7631 WAT         6.1590   14.3440   21.8410 O      7631 WAT       0.1194
   7632 WAT         6.1590   14.3440   22.0910 O      7632 WAT       0.1103
   7633 WAT         6.1590   14.3440   22.3410 O      7633 WAT       0.0947
   7634 WAT         6.1590   14.3440   22.5910 O      7634 WAT       0.0772
   7635 WAT         6.1590   14.3440   22.8410 O      7635 WAT       0.0598
   7636 WAT         6.1590   14.5940   20.8410 O      7636 WAT       0.0546
   7637 WAT         6.1590   14.5940   21.0910 O      7637 WAT       0.0937
   7638 WAT         6.1590   14.5940   21.3410 O      7638 WAT       0.1295
   7639 WAT         6.1590   14.5940   21.5910 O      7639 WAT       0.1446
   7640 WAT         6.1590   14.5940   21.8410 O      7640 WAT       0.1343
   7641 WAT         6.1590   14.5940   22.0910 O      7641 WAT       0.1087
   7642 WAT         6.1590   14.5940   22.3410 O      7642 WAT       0.0807
   7643 WAT         6.1590   14.5940   22.5910 O      7643 WAT       0.0568
   7644 WAT         6.1590   14.8440   20.8410 O      7644 WAT       0.0661
   7645 WAT         6.1590   14.8440   21.0910 O      7645 WAT       0.1051
   7646 WAT         6.1590   14.8440   21.3410 O      7646 WAT       0.1324
   7647 WAT         6.1590   14.8440   21.5910 O      7647 WAT       0.1335
   7648 WAT         6.1590   14.8440   21.8410 O      7648 WAT       0.1110
   7649 WAT         6.1590   14.8440   22.0910 O      7649 WAT       0.0798
   7650 WAT         6.1590   14.8440   22.3410 O      7650 WAT       0.0522
   7651 WAT         6.1590   15.0940   20.8410 O      7651 WAT       0.0614
   7652 WAT         6.1590   15.0940   21.0910 O      7652 WAT       0.0898
   7653 WAT         6.1590   15.0940   21.3410 O      7653 WAT       0.1034
   7654 WAT         6.1590   15.0940   21.5910 O      7654 WAT       0.0948
   7655 WAT         6.1590   15.0940   21.8410 O      7655 WAT       0.0714
   7656 WAT         6.1590   15.0940   22.0910 O      7656 WAT       0.0464
   7657 WAT         6.1590   15.3440   20.8410 O      7657 WAT       0.0487
   7658 WAT         6.1590   15.3440   21.0910 O      7658 WAT       0.0657
   7659 WAT         6.1590   15.3440   21.3410 O      7659 WAT       0.0701
   7660 WAT         6.1590   15.3440   21.5910 O      7660 WAT       0.0600
   7661 WAT         6.1590   15.5940   13.5910 O      7661 WAT       0.0493
   7662 WAT         6.1590   15.5940   13.8410 O      7662 WAT       0.0537
   7663 WAT         6.1590   15.5940   14.0910 O      7663 WAT       0.0517
   7664 WAT         6.1590   15.5940   14.3410 O      7664 WAT       0.0455
   7665 WAT         6.1590   15.5940   21.0910 O      7665 WAT       0.0492
   7666 WAT         6.1590   15.5940   21.3410 O      7666 WAT       0.0512
   7667 WAT         6.1590   15.8440   12.8410 O      7667 WAT       0.0468
   7668 WAT         6.1590   15.8440   13.0910 O      7668 WAT       0.0655
   7669 WAT         6.1590   15.8440   13.3410 O      7669 WAT       0.0776
   7670 WAT         6.1590   15.8440   13.5910 O      7670 WAT       0.0782
   7671 WAT         6.1590   15.8440   13.8410 O      7671 WAT       0.0685
   7672 WAT         6.1590   15.8440   14.0910 O      7672 WAT       0.0539
   7673 WAT         6.1590   15.8440   18.0910 O      7673 WAT       0.0522
   7674 WAT         6.1590   15.8440   18.3410 O      7674 WAT       0.0610
   7675 WAT         6.1590   15.8440   18.5910 O      7675 WAT       0.0617
   7676 WAT         6.1590   15.8440   18.8410 O      7676 WAT       0.0533
   7677 WAT         6.1590   15.8440   21.3410 O      7677 WAT       0.0451
   7678 WAT         6.1590   16.0940   12.3410 O      7678 WAT       0.0480
   7679 WAT         6.1590   16.0940   12.5910 O      7679 WAT       0.0773
   7680 WAT         6.1590   16.0940   12.8410 O      7680 WAT       0.1072
   7681 WAT         6.1590   16.0940   13.0910 O      7681 WAT       0.1241
   7682 WAT         6.1590   16.0940   13.3410 O      7682 WAT       0.1188
   7683 WAT         6.1590   16.0940   13.5910 O      7683 WAT       0.0950
   7684 WAT         6.1590   16.0940   13.8410 O      7684 WAT       0.0653
   7685 WAT         6.1590   16.0940   17.8410 O      7685 WAT       0.0477
   7686 WAT         6.1590   16.0940   18.0910 O      7686 WAT       0.0686
   7687 WAT         6.1590   16.0940   18.3410 O      7687 WAT       0.0841
   7688 WAT         6.1590   16.0940   18.5910 O      7688 WAT       0.0875
   7689 WAT         6.1590   16.0940   18.8410 O      7689 WAT       0.0761
   7690 WAT         6.1590   16.0940   19.0910 O      7690 WAT       0.0541
   7691 WAT         6.1590   16.3440   12.0910 O      7691 WAT       0.0662
   7692 WAT         6.1590   16.3440   12.3410 O      7692 WAT       0.1029
   7693 WAT         6.1590   16.3440   12.5910 O      7693 WAT       0.1438
   7694 WAT         6.1590   16.3440   12.8410 O      7694 WAT       0.1719
   7695 WAT         6.1590   16.3440   13.0910 O      7695 WAT       0.1691
   7696 WAT         6.1590   16.3440   13.3410 O      7696 WAT       0.1344
   7697 WAT         6.1590   16.3440   13.5910 O      7697 WAT       0.0868
   7698 WAT         6.1590   16.3440   13.8410 O      7698 WAT       0.0467
   7699 WAT         6.1590   16.3440   18.0910 O      7699 WAT       0.0644
   7700 WAT         6.1590   16.3440   18.3410 O      7700 WAT       0.0827
   7701 WAT         6.1590   16.3440   18.5910 O      7701 WAT       0.0893
   7702 WAT         6.1590   16.3440   18.8410 O      7702 WAT       0.0791
   7703 WAT         6.1590   16.3440   19.0910 O      7703 WAT       0.0561
   7704 WAT         6.1590   16.5940   11.5910 O      7704 WAT       0.0491
   7705 WAT         6.1590   16.5940   11.8410 O      7705 WAT       0.0768
   7706 WAT         6.1590   16.5940   12.0910 O      7706 WAT       0.1115
   7707 WAT         6.1590   16.5940   12.3410 O      7707 WAT       0.1498
   7708 WAT         6.1590   16.5940   12.5910 O      7708 WAT       0.1811
   7709 WAT         6.1590   16.5940   12.8410 O      7709 WAT       0.1878
   7710 WAT         6.1590   16.5940   13.0910 O      7710 WAT       0.1595
   7711 WAT         6.1590   16.5940   13.3410 O      7711 WAT       0.1079
   7712 WAT         6.1590   16.5940   13.5910 O      7712 WAT       0.0576
   7713 WAT         6.1590   16.5940   18.3410 O      7713 WAT       0.0578
   7714 WAT         6.1590   16.5940   18.5910 O      7714 WAT       0.0642
   7715 WAT         6.1590   16.5940   18.8410 O      7715 WAT       0.0579
   7716 WAT         6.1590   16.8440   11.3410 O      7716 WAT       0.0504
   7717 WAT         6.1590   16.8440   11.5910 O      7717 WAT       0.0761
   7718 WAT         6.1590   16.8440   11.8410 O      7718 WAT       0.1042
   7719 WAT         6.1590   16.8440   12.0910 O      7719 WAT       0.1291
   7720 WAT         6.1590   16.8440   12.3410 O      7720 WAT       0.1472
   7721 WAT         6.1590   16.8440   12.5910 O      7721 WAT       0.1527
   7722 WAT         6.1590   16.8440   12.8410 O      7722 WAT       0.1373
   7723 WAT         6.1590   16.8440   13.0910 O      7723 WAT       0.1014
   7724 WAT         6.1590   16.8440   13.3410 O      7724 WAT       0.0591
   7725 WAT         6.1590   17.0940   11.0910 O      7725 WAT       0.0456
   7726 WAT         6.1590   17.0940   11.3410 O      7726 WAT       0.0658
   7727 WAT         6.1590   17.0940   11.5910 O      7727 WAT       0.0866
   7728 WAT         6.1590   17.0940   11.8410 O      7728 WAT       0.0999
   7729 WAT         6.1590   17.0940   12.0910 O      7729 WAT       0.1029
   7730 WAT         6.1590   17.0940   12.3410 O      7730 WAT       0.0976
   7731 WAT         6.1590   17.0940   12.5910 O      7731 WAT       0.0855
   7732 WAT         6.1590   17.0940   12.8410 O      7732 WAT       0.0661
   7733 WAT         6.1590   17.0940   22.8410 O      7733 WAT       0.0560
   7734 WAT         6.1590   17.0940   23.0910 O      7734 WAT       0.0634
   7735 WAT         6.1590   17.0940   23.3410 O      7735 WAT       0.0562
   7736 WAT         6.1590   17.3440   11.0910 O      7736 WAT       0.0521
   7737 WAT         6.1590   17.3440   11.3410 O      7737 WAT       0.0655
   7738 WAT         6.1590   17.3440   11.5910 O      7738 WAT       0.0723
   7739 WAT         6.1590   17.3440   11.8410 O      7739 WAT       0.0684
   7740 WAT         6.1590   17.3440   12.0910 O      7740 WAT       0.0569
   7741 WAT         6.1590   17.3440   22.5910 O      7741 WAT       0.0621
   7742 WAT         6.1590   17.3440   22.8410 O      7742 WAT       0.0944
   7743 WAT         6.1590   17.3440   23.0910 O      7743 WAT       0.1086
   7744 WAT         6.1590   17.3440   23.3410 O      7744 WAT       0.0939
   7745 WAT         6.1590   17.3440   23.5910 O      7745 WAT       0.0609
   7746 WAT         6.1590   17.5940   11.0910 O      7746 WAT       0.0474
   7747 WAT         6.1590   17.5940   11.3410 O      7747 WAT       0.0497
   7748 WAT         6.1590   17.5940   22.5910 O      7748 WAT       0.0696
   7749 WAT         6.1590   17.5940   22.8410 O      7749 WAT       0.1090
   7750 WAT         6.1590   17.5940   23.0910 O      7750 WAT       0.1253
   7751 WAT         6.1590   17.5940   23.3410 O      7751 WAT       0.1058
   7752 WAT         6.1590   17.5940   23.5910 O      7752 WAT       0.0653
   7753 WAT         6.1590   17.8440   22.5910 O      7753 WAT       0.0526
   7754 WAT         6.1590   17.8440   22.8410 O      7754 WAT       0.0836
   7755 WAT         6.1590   17.8440   23.0910 O      7755 WAT       0.0955
   7756 WAT         6.1590   17.8440   23.3410 O      7756 WAT       0.0788
   7757 WAT         6.1590   17.8440   23.5910 O      7757 WAT       0.0465
   7758 WAT         6.1590   18.0940   23.0910 O      7758 WAT       0.0474
   7759 WAT         6.1590   18.3440    9.8410 O      7759 WAT       0.0451
   7760 WAT         6.1590   18.5940    9.5910 O      7760 WAT       0.0466
   7761 WAT         6.1590   18.5940    9.8410 O      7761 WAT       0.0473
   7762 WAT         6.1590   18.8440    9.5910 O      7762 WAT       0.0480
   7763 WAT         6.1590   18.8440    9.8410 O      7763 WAT       0.0487
   7764 WAT         6.1590   19.0940    9.5910 O      7764 WAT       0.0471
   7765 WAT         6.1590   19.0940    9.8410 O      7765 WAT       0.0473
   7766 WAT         6.1590   21.0940   11.0910 O      7766 WAT       0.0503
   7767 WAT         6.1590   21.0940   11.3410 O      7767 WAT       0.0660
   7768 WAT         6.1590   21.0940   11.5910 O      7768 WAT       0.0633
   7769 WAT         6.1590   21.3440   11.0910 O      7769 WAT       0.0624
   7770 WAT         6.1590   21.3440   11.3410 O      7770 WAT       0.0887
   7771 WAT         6.1590   21.3440   11.5910 O      7771 WAT       0.0932
   7772 WAT         6.1590   21.3440   11.8410 O      7772 WAT       0.0685
   7773 WAT         6.1590   21.5940    9.0910 O      7773 WAT       0.0456
   7774 WAT         6.1590   21.5940    9.3410 O      7774 WAT       0.0476
   7775 WAT         6.1590   21.5940   11.0910 O      7775 WAT       0.0602
   7776 WAT         6.1590   21.5940   11.3410 O      7776 WAT       0.0885
   7777 WAT         6.1590   21.5940   11.5910 O      7777 WAT       0.0994
   7778 WAT         6.1590   21.5940   11.8410 O      7778 WAT       0.0790
   7779 WAT         6.1590   21.8440    9.3410 O      7779 WAT       0.0465
   7780 WAT         6.1590   21.8440    9.5910 O      7780 WAT       0.0479
   7781 WAT         6.1590   21.8440    9.8410 O      7781 WAT       0.0457
   7782 WAT         6.1590   21.8440   11.0910 O      7782 WAT       0.0466
   7783 WAT         6.1590   21.8440   11.3410 O      7783 WAT       0.0664
   7784 WAT         6.1590   21.8440   11.5910 O      7784 WAT       0.0772
   7785 WAT         6.1590   21.8440   11.8410 O      7785 WAT       0.0650
   7786 WAT         6.1590   23.3440    7.8410 O      7786 WAT       0.0492
   7787 WAT         6.1590   23.3440    8.0910 O      7787 WAT       0.0526
   7788 WAT         6.1590   23.3440    8.3410 O      7788 WAT       0.0531
   7789 WAT         6.1590   23.3440    8.5910 O      7789 WAT       0.0490
   7790 WAT         6.1590   23.5940    5.8410 O      7790 WAT       0.0450
   7791 WAT         6.1590   23.5940    6.0910 O      7791 WAT       0.0493
   7792 WAT         6.1590   23.5940    6.3410 O      7792 WAT       0.0495
   7793 WAT         6.1590   23.5940    6.5910 O      7793 WAT       0.0482
   7794 WAT         6.1590   23.5940    6.8410 O      7794 WAT       0.0494
   7795 WAT         6.1590   23.5940    7.0910 O      7795 WAT       0.0548
   7796 WAT         6.1590   23.5940    7.3410 O      7796 WAT       0.0637
   7797 WAT         6.1590   23.5940    7.5910 O      7797 WAT       0.0741
   7798 WAT         6.1590   23.5940    7.8410 O      7798 WAT       0.0839
   7799 WAT         6.1590   23.5940    8.0910 O      7799 WAT       0.0913
   7800 WAT         6.1590   23.5940    8.3410 O      7800 WAT       0.0928
   7801 WAT         6.1590   23.5940    8.5910 O      7801 WAT       0.0838
   7802 WAT         6.1590   23.5940    8.8410 O      7802 WAT       0.0640
   7803 WAT         6.1590   23.8440    5.8410 O      7803 WAT       0.0520
   7804 WAT         6.1590   23.8440    6.0910 O      7804 WAT       0.0549
   7805 WAT         6.1590   23.8440    6.3410 O      7805 WAT       0.0542
   7806 WAT         6.1590   23.8440    6.5910 O      7806 WAT       0.0534
   7807 WAT         6.1590   23.8440    6.8410 O      7807 WAT       0.0571
   7808 WAT         6.1590   23.8440    7.0910 O      7808 WAT       0.0666
   7809 WAT         6.1590   23.8440    7.3410 O      7809 WAT       0.0801
   7810 WAT         6.1590   23.8440    7.5910 O      7810 WAT       0.0952
   7811 WAT         6.1590   23.8440    7.8410 O      7811 WAT       0.1096
   7812 WAT         6.1590   23.8440    8.0910 O      7812 WAT       0.1211
   7813 WAT         6.1590   23.8440    8.3410 O      7813 WAT       0.1242
   7814 WAT         6.1590   23.8440    8.5910 O      7814 WAT       0.1113
   7815 WAT         6.1590   23.8440    8.8410 O      7815 WAT       0.0817
   7816 WAT         6.1590   23.8440    9.0910 O      7816 WAT       0.0474
   7817 WAT         6.1590   24.0940    5.8410 O      7817 WAT       0.0455
   7818 WAT         6.1590   24.0940    6.0910 O      7818 WAT       0.0459
   7819 WAT         6.1590   24.0940    6.8410 O      7819 WAT       0.0508
   7820 WAT         6.1590   24.0940    7.0910 O      7820 WAT       0.0622
   7821 WAT         6.1590   24.0940    7.3410 O      7821 WAT       0.0768
   7822 WAT         6.1590   24.0940    7.5910 O      7822 WAT       0.0923
   7823 WAT         6.1590   24.0940    7.8410 O      7823 WAT       0.1074
   7824 WAT         6.1590   24.0940    8.0910 O      7824 WAT       0.1203
   7825 WAT         6.1590   24.0940    8.3410 O      7825 WAT       0.1247
   7826 WAT         6.1590   24.0940    8.5910 O      7826 WAT       0.1112
   7827 WAT         6.1590   24.0940    8.8410 O      7827 WAT       0.0798
   7828 WAT         6.1590   24.3440    7.3410 O      7828 WAT       0.0542
   7829 WAT         6.1590   24.3440    7.5910 O      7829 WAT       0.0659
   7830 WAT         6.1590   24.3440    7.8410 O      7830 WAT       0.0778
   7831 WAT         6.1590   24.3440    8.0910 O      7831 WAT       0.0890
   7832 WAT         6.1590   24.3440    8.3410 O      7832 WAT       0.0936
   7833 WAT         6.1590   24.3440    8.5910 O      7833 WAT       0.0834
   7834 WAT         6.1590   24.3440    8.8410 O      7834 WAT       0.0587
   7835 WAT         6.1590   24.5940    8.0910 O      7835 WAT       0.0487
   7836 WAT         6.1590   24.5940    8.3410 O      7836 WAT       0.0524
   7837 WAT         6.1590   24.5940    8.5910 O      7837 WAT       0.0469
   7838 WAT         6.1590   26.0940    3.0910 O      7838 WAT       0.0537
   7839 WAT         6.1590   26.0940    3.3410 O      7839 WAT       0.0543
   7840 WAT         6.1590   26.3440    2.5910 O      7840 WAT       0.0519
   7841 WAT         6.1590   26.3440    2.8410 O      7841 WAT       0.0733
   7842 WAT         6.1590   26.3440    3.0910 O      7842 WAT       0.0838
   7843 WAT         6.1590   26.3440    3.3410 O      7843 WAT       0.0747
   7844 WAT         6.1590   26.3440    3.5910 O      7844 WAT       0.0502
   7845 WAT         6.1590   26.5940    2.5910 O      7845 WAT       0.0793
   7846 WAT         6.1590   26.5940    2.8410 O      7846 WAT       0.1016
   7847 WAT         6.1590   26.5940    3.0910 O      7847 WAT       0.1027
   7848 WAT         6.1590   26.5940    3.3410 O      7848 WAT       0.0800
   7849 WAT         6.1590   26.5940    3.5910 O      7849 WAT       0.0469
   7850 WAT         6.1590   26.8440    2.5910 O      7850 WAT       0.0880
   7851 WAT         6.1590   26.8440    2.8410 O      7851 WAT       0.1028
   7852 WAT         6.1590   26.8440    3.0910 O      7852 WAT       0.0924
   7853 WAT         6.1590   26.8440    3.3410 O      7853 WAT       0.0628
   7854 WAT         6.1590   27.0940    2.5910 O      7854 WAT       0.0681
   7855 WAT         6.1590   27.0940    2.8410 O      7855 WAT       0.0729
   7856 WAT         6.1590   27.0940    3.0910 O      7856 WAT       0.0586
   7857 WAT         6.4090    9.0940   23.3410 O      7857 WAT       0.0465
   7858 WAT         6.4090    9.3440   20.8410 O      7858 WAT       0.0482
   7859 WAT         6.4090    9.3440   21.0910 O      7859 WAT       0.0559
   7860 WAT         6.4090    9.3440   21.3410 O      7860 WAT       0.0585
   7861 WAT         6.4090    9.3440   21.5910 O      7861 WAT       0.0548
   7862 WAT         6.4090    9.3440   21.8410 O      7862 WAT       0.0466
   7863 WAT         6.4090    9.3440   23.0910 O      7863 WAT       0.0521
   7864 WAT         6.4090    9.3440   23.3410 O      7864 WAT       0.0597
   7865 WAT         6.4090    9.3440   23.5910 O      7865 WAT       0.0542
   7866 WAT         6.4090    9.5940   20.5910 O      7866 WAT       0.0521
   7867 WAT         6.4090    9.5940   20.8410 O      7867 WAT       0.0628
   7868 WAT         6.4090    9.5940   21.0910 O      7868 WAT       0.0705
   7869 WAT         6.4090    9.5940   21.3410 O      7869 WAT       0.0721
   7870 WAT         6.4090    9.5940   21.5910 O      7870 WAT       0.0663
   7871 WAT         6.4090    9.5940   21.8410 O      7871 WAT       0.0557
   7872 WAT         6.4090    9.5940   22.8410 O      7872 WAT       0.0504
   7873 WAT         6.4090    9.5940   23.0910 O      7873 WAT       0.0686
   7874 WAT         6.4090    9.5940   23.3410 O      7874 WAT       0.0803
   7875 WAT         6.4090    9.5940   23.5910 O      7875 WAT       0.0741
   7876 WAT         6.4090    9.5940   23.8410 O      7876 WAT       0.0524
   7877 WAT         6.4090    9.8440   20.3410 O      7877 WAT       0.0517
   7878 WAT         6.4090    9.8440   20.5910 O      7878 WAT       0.0610
   7879 WAT         6.4090    9.8440   20.8410 O      7879 WAT       0.0698
   7880 WAT         6.4090    9.8440   21.0910 O      7880 WAT       0.0760
   7881 WAT         6.4090    9.8440   21.3410 O      7881 WAT       0.0762
   7882 WAT         6.4090    9.8440   21.5910 O      7882 WAT       0.0696
   7883 WAT         6.4090    9.8440   21.8410 O      7883 WAT       0.0584
   7884 WAT         6.4090    9.8440   22.0910 O      7884 WAT       0.0470
   7885 WAT         6.4090    9.8440   22.8410 O      7885 WAT       0.0572
   7886 WAT         6.4090    9.8440   23.0910 O      7886 WAT       0.0821
   7887 WAT         6.4090    9.8440   23.3410 O      7887 WAT       0.1017
   7888 WAT         6.4090    9.8440   23.5910 O      7888 WAT       0.0994
   7889 WAT         6.4090    9.8440   23.8410 O      7889 WAT       0.0743
   7890 WAT         6.4090   10.0940   20.0910 O      7890 WAT       0.0481
   7891 WAT         6.4090   10.0940   20.3410 O      7891 WAT       0.0553
   7892 WAT         6.4090   10.0940   20.5910 O      7892 WAT       0.0607
   7893 WAT         6.4090   10.0940   20.8410 O      7893 WAT       0.0653
   7894 WAT         6.4090   10.0940   21.0910 O      7894 WAT       0.0682
   7895 WAT         6.4090   10.0940   21.3410 O      7895 WAT       0.0675
   7896 WAT         6.4090   10.0940   21.5910 O      7896 WAT       0.0617
   7897 WAT         6.4090   10.0940   21.8410 O      7897 WAT       0.0524
   7898 WAT         6.4090   10.0940   22.8410 O      7898 WAT       0.0552
   7899 WAT         6.4090   10.0940   23.0910 O      7899 WAT       0.0842
   7900 WAT         6.4090   10.0940   23.3410 O      7900 WAT       0.1132
   7901 WAT         6.4090   10.0940   23.5910 O      7901 WAT       0.1209
   7902 WAT         6.4090   10.0940   23.8410 O      7902 WAT       0.0988
   7903 WAT         6.4090   10.0940   24.0910 O      7903 WAT       0.0610
   7904 WAT         6.4090   10.3440   20.0910 O      7904 WAT       0.0476
   7905 WAT         6.4090   10.3440   20.3410 O      7905 WAT       0.0509
   7906 WAT         6.4090   10.3440   20.5910 O      7906 WAT       0.0517
   7907 WAT         6.4090   10.3440   20.8410 O      7907 WAT       0.0516
   7908 WAT         6.4090   10.3440   21.0910 O      7908 WAT       0.0512
   7909 WAT         6.4090   10.3440   21.3410 O      7909 WAT       0.0496
   7910 WAT         6.4090   10.3440   21.5910 O      7910 WAT       0.0454
   7911 WAT         6.4090   10.3440   23.0910 O      7911 WAT       0.0725
   7912 WAT         6.4090   10.3440   23.3410 O      7912 WAT       0.1072
   7913 WAT         6.4090   10.3440   23.5910 O      7913 WAT       0.1276
   7914 WAT         6.4090   10.3440   23.8410 O      7914 WAT       0.1162
   7915 WAT         6.4090   10.3440   24.0910 O      7915 WAT       0.0799
   7916 WAT         6.4090   10.5940   23.0910 O      7916 WAT       0.0521
   7917 WAT         6.4090   10.5940   23.3410 O      7917 WAT       0.0854
   7918 WAT         6.4090   10.5940   23.5910 O      7918 WAT       0.1144
   7919 WAT         6.4090   10.5940   23.8410 O      7919 WAT       0.1178
   7920 WAT         6.4090   10.5940   24.0910 O      7920 WAT       0.0913
   7921 WAT         6.4090   10.5940   24.3410 O      7921 WAT       0.0537
   7922 WAT         6.4090   10.8440   23.3410 O      7922 WAT       0.0574
   7923 WAT         6.4090   10.8440   23.5910 O      7923 WAT       0.0872
   7924 WAT         6.4090   10.8440   23.8410 O      7924 WAT       0.1023
   7925 WAT         6.4090   10.8440   24.0910 O      7925 WAT       0.0905
   7926 WAT         6.4090   10.8440   24.3410 O      7926 WAT       0.0607
   7927 WAT         6.4090   11.0940   23.5910 O      7927 WAT       0.0578
   7928 WAT         6.4090   11.0940   23.8410 O      7928 WAT       0.0780
   7929 WAT         6.4090   11.0940   24.0910 O      7929 WAT       0.0797
   7930 WAT         6.4090   11.0940   24.3410 O      7930 WAT       0.0617
   7931 WAT         6.4090   11.3440   23.8410 O      7931 WAT       0.0546
   7932 WAT         6.4090   11.3440   24.0910 O      7932 WAT       0.0652
   7933 WAT         6.4090   11.3440   24.3410 O      7933 WAT       0.0588
   7934 WAT         6.4090   11.5940   24.0910 O      7934 WAT       0.0516
   7935 WAT         6.4090   11.5940   24.3410 O      7935 WAT       0.0540
   7936 WAT         6.4090   11.8440   24.3410 O      7936 WAT       0.0486
   7937 WAT         6.4090   13.5940   23.0910 O      7937 WAT       0.0457
   7938 WAT         6.4090   13.5940   23.3410 O      7938 WAT       0.0470
   7939 WAT         6.4090   13.8440   22.5910 O      7939 WAT       0.0509
   7940 WAT         6.4090   13.8440   22.8410 O      7940 WAT       0.0554
   7941 WAT         6.4090   13.8440   23.0910 O      7941 WAT       0.0556
   7942 WAT         6.4090   13.8440   23.3410 O      7942 WAT       0.0505
   7943 WAT         6.4090   14.0940   21.3410 O      7943 WAT       0.0481
   7944 WAT         6.4090   14.0940   21.5910 O      7944 WAT       0.0594
   7945 WAT         6.4090   14.0940   21.8410 O      7945 WAT       0.0634
   7946 WAT         6.4090   14.0940   22.0910 O      7946 WAT       0.0628
   7947 WAT         6.4090   14.0940   22.3410 O      7947 WAT       0.0610
   7948 WAT         6.4090   14.0940   22.5910 O      7948 WAT       0.0587
   7949 WAT         6.4090   14.0940   22.8410 O      7949 WAT       0.0547
   7950 WAT         6.4090   14.0940   23.0910 O      7950 WAT       0.0481
   7951 WAT         6.4090   14.3440   21.0910 O      7951 WAT       0.0710
   7952 WAT         6.4090   14.3440   21.3410 O      7952 WAT       0.0945
   7953 WAT         6.4090   14.3440   21.5910 O      7953 WAT       0.1034
   7954 WAT         6.4090   14.3440   21.8410 O      7954 WAT       0.0956
   7955 WAT         6.4090   14.3440   22.0910 O      7955 WAT       0.0793
   7956 WAT         6.4090   14.3440   22.3410 O      7956 WAT       0.0632
   7957 WAT         6.4090   14.3440   22.5910 O      7957 WAT       0.0501
   7958 WAT         6.4090   14.5940   20.8410 O      7958 WAT       0.0752
   7959 WAT         6.4090   14.5940   21.0910 O      7959 WAT       0.1104
   7960 WAT         6.4090   14.5940   21.3410 O      7960 WAT       0.1325
   7961 WAT         6.4090   14.5940   21.5910 O      7961 WAT       0.1291
   7962 WAT         6.4090   14.5940   21.8410 O      7962 WAT       0.1045
   7963 WAT         6.4090   14.5940   22.0910 O      7963 WAT       0.0741
   7964 WAT         6.4090   14.5940   22.3410 O      7964 WAT       0.0492
   7965 WAT         6.4090   14.8440   20.5910 O      7965 WAT       0.0556
   7966 WAT         6.4090   14.8440   20.8410 O      7966 WAT       0.0910
   7967 WAT         6.4090   14.8440   21.0910 O      7967 WAT       0.1231
   7968 WAT         6.4090   14.8440   21.3410 O      7968 WAT       0.1339
   7969 WAT         6.4090   14.8440   21.5910 O      7969 WAT       0.1167
   7970 WAT         6.4090   14.8440   21.8410 O      7970 WAT       0.0834
   7971 WAT         6.4090   14.8440   22.0910 O      7971 WAT       0.0513
   7972 WAT         6.4090   15.0940   20.5910 O      7972 WAT       0.0529
   7973 WAT         6.4090   15.0940   20.8410 O      7973 WAT       0.0814
   7974 WAT         6.4090   15.0940   21.0910 O      7974 WAT       0.1016
   7975 WAT         6.4090   15.0940   21.3410 O      7975 WAT       0.1004
   7976 WAT         6.4090   15.0940   21.5910 O      7976 WAT       0.0787
   7977 WAT         6.4090   15.0940   21.8410 O      7977 WAT       0.0500
   7978 WAT         6.4090   15.3440   20.8410 O      7978 WAT       0.0589
   7979 WAT         6.4090   15.3440   21.0910 O      7979 WAT       0.0676
   7980 WAT         6.4090   15.3440   21.3410 O      7980 WAT       0.0612
   7981 WAT         6.4090   15.5940   13.3410 O      7981 WAT       0.0456
   7982 WAT         6.4090   15.5940   13.5910 O      7982 WAT       0.0577
   7983 WAT         6.4090   15.5940   13.8410 O      7983 WAT       0.0623
   7984 WAT         6.4090   15.5940   14.0910 O      7984 WAT       0.0590
   7985 WAT         6.4090   15.5940   14.3410 O      7985 WAT       0.0509
   7986 WAT         6.4090   15.5940   25.5910 O      7986 WAT       0.0485
   7987 WAT         6.4090   15.8440   12.8410 O      7987 WAT       0.0492
   7988 WAT         6.4090   15.8440   13.0910 O      7988 WAT       0.0708
   7989 WAT         6.4090   15.8440   13.3410 O      7989 WAT       0.0854
   7990 WAT         6.4090   15.8440   13.5910 O      7990 WAT       0.0869
   7991 WAT         6.4090   15.8440   13.8410 O      7991 WAT       0.0760
   7992 WAT         6.4090   15.8440   14.0910 O      7992 WAT       0.0591
   7993 WAT         6.4090   15.8440   17.8410 O      7993 WAT       0.0566
   7994 WAT         6.4090   15.8440   18.0910 O      7994 WAT       0.0697
   7995 WAT         6.4090   15.8440   18.3410 O      7995 WAT       0.0720
   7996 WAT         6.4090   15.8440   18.5910 O      7996 WAT       0.0638
   7997 WAT         6.4090   15.8440   18.8410 O      7997 WAT       0.0481
   7998 WAT         6.4090   15.8440   25.3410 O      7998 WAT       0.0452
   7999 WAT         6.4090   15.8440   25.5910 O      7999 WAT       0.0608
   8000 WAT         6.4090   15.8440   25.8410 O      8000 WAT       0.0549
   8001 WAT         6.4090   16.0940   12.5910 O      8001 WAT       0.0741
   8002 WAT         6.4090   16.0940   12.8410 O      8002 WAT       0.1067
   8003 WAT         6.4090   16.0940   13.0910 O      8003 WAT       0.1264
   8004 WAT         6.4090   16.0940   13.3410 O      8004 WAT       0.1229
   8005 WAT         6.4090   16.0940   13.5910 O      8005 WAT       0.0994
   8006 WAT         6.4090   16.0940   13.8410 O      8006 WAT       0.0686
   8007 WAT         6.4090   16.0940   17.8410 O      8007 WAT       0.0623
   8008 WAT         6.4090   16.0940   18.0910 O      8008 WAT       0.0815
   8009 WAT         6.4090   16.0940   18.3410 O      8009 WAT       0.0895
   8010 WAT         6.4090   16.0940   18.5910 O      8010 WAT       0.0834
   8011 WAT         6.4090   16.0940   18.8410 O      8011 WAT       0.0651
   8012 WAT         6.4090   16.0940   25.3410 O      8012 WAT       0.0472
   8013 WAT         6.4090   16.0940   25.5910 O      8013 WAT       0.0613
   8014 WAT         6.4090   16.0940   25.8410 O      8014 WAT       0.0537
   8015 WAT         6.4090   16.3440   12.0910 O      8015 WAT       0.0543
   8016 WAT         6.4090   16.3440   12.3410 O      8016 WAT       0.0902
   8017 WAT         6.4090   16.3440   12.5910 O      8017 WAT       0.1334
   8018 WAT         6.4090   16.3440   12.8410 O      8018 WAT       0.1651
   8019 WAT         6.4090   16.3440   13.0910 O      8019 WAT       0.1651
   8020 WAT         6.4090   16.3440   13.3410 O      8020 WAT       0.1321
   8021 WAT         6.4090   16.3440   13.5910 O      8021 WAT       0.0855
   8022 WAT         6.4090   16.3440   13.8410 O      8022 WAT       0.0460
   8023 WAT         6.4090   16.3440   17.8410 O      8023 WAT       0.0465
   8024 WAT         6.4090   16.3440   18.0910 O      8024 WAT       0.0652
   8025 WAT         6.4090   16.3440   18.3410 O      8025 WAT       0.0767
   8026 WAT         6.4090   16.3440   18.5910 O      8026 WAT       0.0756
   8027 WAT         6.4090   16.3440   18.8410 O      8027 WAT       0.0614
   8028 WAT         6.4090   16.3440   25.5910 O      8028 WAT       0.0469
   8029 WAT         6.4090   16.5940   11.8410 O      8029 WAT       0.0574
   8030 WAT         6.4090   16.5940   12.0910 O      8030 WAT       0.0883
   8031 WAT         6.4090   16.5940   12.3410 O      8031 WAT       0.1274
   8032 WAT         6.4090   16.5940   12.5910 O      8032 WAT       0.1637
   8033 WAT         6.4090   16.5940   12.8410 O      8033 WAT       0.1761
   8034 WAT         6.4090   16.5940   13.0910 O      8034 WAT       0.1515
   8035 WAT         6.4090   16.5940   13.3410 O      8035 WAT       0.1022
   8036 WAT         6.4090   16.5940   13.5910 O      8036 WAT       0.0540
   8037 WAT         6.4090   16.5940   18.3410 O      8037 WAT       0.0451
   8038 WAT         6.4090   16.5940   18.5910 O      8038 WAT       0.0470
   8039 WAT         6.4090   16.8440    9.5910 O      8039 WAT       0.0466
   8040 WAT         6.4090   16.8440    9.8410 O      8040 WAT       0.0463
   8041 WAT         6.4090   16.8440   11.5910 O      8041 WAT       0.0523
   8042 WAT         6.4090   16.8440   11.8410 O      8042 WAT       0.0745
   8043 WAT         6.4090   16.8440   12.0910 O      8043 WAT       0.0987
   8044 WAT         6.4090   16.8440   12.3410 O      8044 WAT       0.1217
   8045 WAT         6.4090   16.8440   12.5910 O      8045 WAT       0.1349
   8046 WAT         6.4090   16.8440   12.8410 O      8046 WAT       0.1265
   8047 WAT         6.4090   16.8440   13.0910 O      8047 WAT       0.0947
   8048 WAT         6.4090   16.8440   13.3410 O      8048 WAT       0.0548
   8049 WAT         6.4090   17.0940    9.3410 O      8049 WAT       0.0456
   8050 WAT         6.4090   17.0940    9.5910 O      8050 WAT       0.0489
   8051 WAT         6.4090   17.0940    9.8410 O      8051 WAT       0.0479
   8052 WAT         6.4090   17.0940   11.5910 O      8052 WAT       0.0565
   8053 WAT         6.4090   17.0940   11.8410 O      8053 WAT       0.0685
   8054 WAT         6.4090   17.0940   12.0910 O      8054 WAT       0.0758
   8055 WAT         6.4090   17.0940   12.3410 O      8055 WAT       0.0782
   8056 WAT         6.4090   17.0940   12.5910 O      8056 WAT       0.0739
   8057 WAT         6.4090   17.0940   12.8410 O      8057 WAT       0.0600
   8058 WAT         6.4090   17.3440    9.3410 O      8058 WAT       0.0458
   8059 WAT         6.4090   17.3440    9.5910 O      8059 WAT       0.0488
   8060 WAT         6.4090   17.3440    9.8410 O      8060 WAT       0.0475
   8061 WAT         6.4090   17.5940    9.5910 O      8061 WAT       0.0467
   8062 WAT         6.4090   17.5940    9.8410 O      8062 WAT       0.0450
   8063 WAT         6.4090   21.3440    9.0910 O      8063 WAT       0.0455
   8064 WAT         6.4090   21.3440   11.3410 O      8064 WAT       0.0582
   8065 WAT         6.4090   21.3440   11.5910 O      8065 WAT       0.0617
   8066 WAT         6.4090   21.3440   11.8410 O      8066 WAT       0.0475
   8067 WAT         6.4090   21.5940    9.0910 O      8067 WAT       0.0490
   8068 WAT         6.4090   21.5940    9.3410 O      8068 WAT       0.0500
   8069 WAT         6.4090   21.5940    9.5910 O      8069 WAT       0.0461
   8070 WAT         6.4090   21.5940   11.0910 O      8070 WAT       0.0454
   8071 WAT         6.4090   21.5940   11.3410 O      8071 WAT       0.0627
   8072 WAT         6.4090   21.5940   11.5910 O      8072 WAT       0.0707
   8073 WAT         6.4090   21.5940   11.8410 O      8073 WAT       0.0589
   8074 WAT         6.4090   21.8440    9.3410 O      8074 WAT       0.0483
   8075 WAT         6.4090   21.8440    9.5910 O      8075 WAT       0.0491
   8076 WAT         6.4090   21.8440    9.8410 O      8076 WAT       0.0469
   8077 WAT         6.4090   21.8440   11.3410 O      8077 WAT       0.0528
   8078 WAT         6.4090   21.8440   11.5910 O      8078 WAT       0.0604
   8079 WAT         6.4090   21.8440   11.8410 O      8079 WAT       0.0531
   8080 WAT         6.4090   22.0940    9.8410 O      8080 WAT       0.0466
   8081 WAT         6.4090   22.0940   10.0910 O      8081 WAT       0.0456
   8082 WAT         6.4090   23.3440    7.3410 O      8082 WAT       0.0502
   8083 WAT         6.4090   23.3440    7.5910 O      8083 WAT       0.0594
   8084 WAT         6.4090   23.3440    7.8410 O      8084 WAT       0.0663
   8085 WAT         6.4090   23.3440    8.0910 O      8085 WAT       0.0693
   8086 WAT         6.4090   23.3440    8.3410 O      8086 WAT       0.0662
   8087 WAT         6.4090   23.3440    8.5910 O      8087 WAT       0.0563
   8088 WAT         6.4090   23.5940    6.8410 O      8088 WAT       0.0557
   8089 WAT         6.4090   23.5940    7.0910 O      8089 WAT       0.0729
   8090 WAT         6.4090   23.5940    7.3410 O      8090 WAT       0.0930
   8091 WAT         6.4090   23.5940    7.5910 O      8091 WAT       0.1123
   8092 WAT         6.4090   23.5940    7.8410 O      8092 WAT       0.1273
   8093 WAT         6.4090   23.5940    8.0910 O      8093 WAT       0.1350
   8094 WAT         6.4090   23.5940    8.3410 O      8094 WAT       0.1309
   8095 WAT         6.4090   23.5940    8.5910 O      8095 WAT       0.1109
   8096 WAT         6.4090   23.5940    8.8410 O      8096 WAT       0.0784
   8097 WAT         6.4090   23.5940    9.0910 O      8097 WAT       0.0453
   8098 WAT         6.4090   23.8440    6.3410 O      8098 WAT       0.0467
   8099 WAT         6.4090   23.8440    6.5910 O      8099 WAT       0.0575
   8100 WAT         6.4090   23.8440    6.8410 O      8100 WAT       0.0756
   8101 WAT         6.4090   23.8440    7.0910 O      8101 WAT       0.1015
   8102 WAT         6.4090   23.8440    7.3410 O      8102 WAT       0.1310
   8103 WAT         6.4090   23.8440    7.5910 O      8103 WAT       0.1590
   8104 WAT         6.4090   23.8440    7.8410 O      8104 WAT       0.1816
   8105 WAT         6.4090   23.8440    8.0910 O      8105 WAT       0.1951
   8106 WAT         6.4090   23.8440    8.3410 O      8106 WAT       0.1918
   8107 WAT         6.4090   23.8440    8.5910 O      8107 WAT       0.1631
   8108 WAT         6.4090   23.8440    8.8410 O      8108 WAT       0.1131
   8109 WAT         6.4090   23.8440    9.0910 O      8109 WAT       0.0617
   8110 WAT         6.4090   24.0940    6.5910 O      8110 WAT       0.0557
   8111 WAT         6.4090   24.0940    6.8410 O      8111 WAT       0.0764
   8112 WAT         6.4090   24.0940    7.0910 O      8112 WAT       0.1048
   8113 WAT         6.4090   24.0940    7.3410 O      8113 WAT       0.1363
   8114 WAT         6.4090   24.0940    7.5910 O      8114 WAT       0.1659
   8115 WAT         6.4090   24.0940    7.8410 O      8115 WAT       0.1910
   8116 WAT         6.4090   24.0940    8.0910 O      8116 WAT       0.2084
   8117 WAT         6.4090   24.0940    8.3410 O      8117 WAT       0.2081
   8118 WAT         6.4090   24.0940    8.5910 O      8118 WAT       0.1778
   8119 WAT         6.4090   24.0940    8.8410 O      8119 WAT       0.1219
   8120 WAT         6.4090   24.0940    9.0910 O      8120 WAT       0.0642
   8121 WAT         6.4090   24.3440    6.8410 O      8121 WAT       0.0556
   8122 WAT         6.4090   24.3440    7.0910 O      8122 WAT       0.0779
   8123 WAT         6.4090   24.3440    7.3410 O      8123 WAT       0.1023
   8124 WAT         6.4090   24.3440    7.5910 O      8124 WAT       0.1256
   8125 WAT         6.4090   24.3440    7.8410 O      8125 WAT       0.1470
   8126 WAT         6.4090   24.3440    8.0910 O      8126 WAT       0.1643
   8127 WAT         6.4090   24.3440    8.3410 O      8127 WAT       0.1673
   8128 WAT         6.4090   24.3440    8.5910 O      8128 WAT       0.1440
   8129 WAT         6.4090   24.3440    8.8410 O      8129 WAT       0.0980
   8130 WAT         6.4090   24.3440    9.0910 O      8130 WAT       0.0503
   8131 WAT         6.4090   24.5940    7.3410 O      8131 WAT       0.0544
   8132 WAT         6.4090   24.5940    7.5910 O      8132 WAT       0.0679
   8133 WAT         6.4090   24.5940    7.8410 O      8133 WAT       0.0820
   8134 WAT         6.4090   24.5940    8.0910 O      8134 WAT       0.0951
   8135 WAT         6.4090   24.5940    8.3410 O      8135 WAT       0.0996
   8136 WAT         6.4090   24.5940    8.5910 O      8136 WAT       0.0867
   8137 WAT         6.4090   24.5940    8.8410 O      8137 WAT       0.0587
   8138 WAT         6.4090   26.0940    2.8410 O      8138 WAT       0.0515
   8139 WAT         6.4090   26.0940    3.0910 O      8139 WAT       0.0705
   8140 WAT         6.4090   26.0940    3.3410 O      8140 WAT       0.0757
   8141 WAT         6.4090   26.0940    3.5910 O      8141 WAT       0.0618
   8142 WAT         6.4090   26.3440    2.5910 O      8142 WAT       0.0631
   8143 WAT         6.4090   26.3440    2.8410 O      8143 WAT       0.0949
   8144 WAT         6.4090   26.3440    3.0910 O      8144 WAT       0.1148
   8145 WAT         6.4090   26.3440    3.3410 O      8145 WAT       0.1084
   8146 WAT         6.4090   26.3440    3.5910 O      8146 WAT       0.0778
   8147 WAT         6.4090   26.5940    2.5910 O      8147 WAT       0.0959
   8148 WAT         6.4090   26.5940    2.8410 O      8148 WAT       0.1312
   8149 WAT         6.4090   26.5940    3.0910 O      8149 WAT       0.1408
   8150 WAT         6.4090   26.5940    3.3410 O      8150 WAT       0.1164
   8151 WAT         6.4090   26.5940    3.5910 O      8151 WAT       0.0730
   8152 WAT         6.4090   26.8440    2.5910 O      8152 WAT       0.1025
   8153 WAT         6.4090   26.8440    2.8410 O      8153 WAT       0.1283
   8154 WAT         6.4090   26.8440    3.0910 O      8154 WAT       0.1230
   8155 WAT         6.4090   26.8440    3.3410 O      8155 WAT       0.0894
   8156 WAT         6.4090   26.8440    3.5910 O      8156 WAT       0.0487
   8157 WAT         6.4090   27.0940    2.5910 O      8157 WAT       0.0745
   8158 WAT         6.4090   27.0940    2.8410 O      8158 WAT       0.0858
   8159 WAT         6.4090   27.0940    3.0910 O      8159 WAT       0.0741
   8160 WAT         6.4090   27.0940    3.3410 O      8160 WAT       0.0474
   8161 WAT         6.6590    8.3440   23.3410 O      8161 WAT       0.0517
   8162 WAT         6.6590    8.3440   23.5910 O      8162 WAT       0.0561
   8163 WAT         6.6590    8.3440   23.8410 O      8163 WAT       0.0454
   8164 WAT         6.6590    8.5940   23.3410 O      8164 WAT       0.0495
   8165 WAT         6.6590    8.5940   23.5910 O      8165 WAT       0.0495
   8166 WAT         6.6590    9.0940   20.8410 O      8166 WAT       0.0479
   8167 WAT         6.6590    9.0940   21.0910 O      8167 WAT       0.0547
   8168 WAT         6.6590    9.0940   21.3410 O      8168 WAT       0.0564
   8169 WAT         6.6590    9.0940   21.5910 O      8169 WAT       0.0522
   8170 WAT         6.6590    9.0940   23.3410 O      8170 WAT       0.0465
   8171 WAT         6.6590    9.3440   20.5910 O      8171 WAT       0.0544
   8172 WAT         6.6590    9.3440   20.8410 O      8172 WAT       0.0647
   8173 WAT         6.6590    9.3440   21.0910 O      8173 WAT       0.0708
   8174 WAT         6.6590    9.3440   21.3410 O      8174 WAT       0.0702
   8175 WAT         6.6590    9.3440   21.5910 O      8175 WAT       0.0629
   8176 WAT         6.6590    9.3440   21.8410 O      8176 WAT       0.0513
   8177 WAT         6.6590    9.3440   23.0910 O      8177 WAT       0.0554
   8178 WAT         6.6590    9.3440   23.3410 O      8178 WAT       0.0574
   8179 WAT         6.6590    9.3440   23.5910 O      8179 WAT       0.0452
   8180 WAT         6.6590    9.5940   20.0910 O      8180 WAT       0.0472
   8181 WAT         6.6590    9.5940   20.3410 O      8181 WAT       0.0575
   8182 WAT         6.6590    9.5940   20.5910 O      8182 WAT       0.0675
   8183 WAT         6.6590    9.5940   20.8410 O      8183 WAT       0.0759
   8184 WAT         6.6590    9.5940   21.0910 O      8184 WAT       0.0793
   8185 WAT         6.6590    9.5940   21.3410 O      8185 WAT       0.0756
   8186 WAT         6.6590    9.5940   21.5910 O      8186 WAT       0.0655
   8187 WAT         6.6590    9.5940   21.8410 O      8187 WAT       0.0522
   8188 WAT         6.6590    9.5940   22.8410 O      8188 WAT       0.0520
   8189 WAT         6.6590    9.5940   23.0910 O      8189 WAT       0.0694
   8190 WAT         6.6590    9.5940   23.3410 O      8190 WAT       0.0748
   8191 WAT         6.6590    9.5940   23.5910 O      8191 WAT       0.0609
   8192 WAT         6.6590    9.8440   19.8410 O      8192 WAT       0.0459
   8193 WAT         6.6590    9.8440   20.0910 O      8193 WAT       0.0564
   8194 WAT         6.6590    9.8440   20.3410 O      8194 WAT       0.0645
   8195 WAT         6.6590    9.8440   20.5910 O      8195 WAT       0.0705
   8196 WAT         6.6590    9.8440   20.8410 O      8196 WAT       0.0743
   8197 WAT         6.6590    9.8440   21.0910 O      8197 WAT       0.0743
   8198 WAT         6.6590    9.8440   21.3410 O      8198 WAT       0.0687
   8199 WAT         6.6590    9.8440   21.5910 O      8199 WAT       0.0580
   8200 WAT         6.6590    9.8440   21.8410 O      8200 WAT       0.0454
   8201 WAT         6.6590    9.8440   22.8410 O      8201 WAT       0.0533
   8202 WAT         6.6590    9.8440   23.0910 O      8202 WAT       0.0774
   8203 WAT         6.6590    9.8440   23.3410 O      8203 WAT       0.0906
   8204 WAT         6.6590    9.8440   23.5910 O      8204 WAT       0.0804
   8205 WAT         6.6590    9.8440   23.8410 O      8205 WAT       0.0534
   8206 WAT         6.6590   10.0940   19.8410 O      8206 WAT       0.0498
   8207 WAT         6.6590   10.0940   20.0910 O      8207 WAT       0.0575
   8208 WAT         6.6590   10.0940   20.3410 O      8208 WAT       0.0610
   8209 WAT         6.6590   10.0940   20.5910 O      8209 WAT       0.0614
   8210 WAT         6.6590   10.0940   20.8410 O      8210 WAT       0.0603
   8211 WAT         6.6590   10.0940   21.0910 O      8211 WAT       0.0575
   8212 WAT         6.6590   10.0940   21.3410 O      8212 WAT       0.0518
   8213 WAT         6.6590   10.0940   22.8410 O      8213 WAT       0.0456
   8214 WAT         6.6590   10.0940   23.0910 O      8214 WAT       0.0732
   8215 WAT         6.6590   10.0940   23.3410 O      8215 WAT       0.0957
   8216 WAT         6.6590   10.0940   23.5910 O      8216 WAT       0.0958
   8217 WAT         6.6590   10.0940   23.8410 O      8217 WAT       0.0720
   8218 WAT         6.6590   10.3440   19.8410 O      8218 WAT       0.0471
   8219 WAT         6.6590   10.3440   20.0910 O      8219 WAT       0.0502
   8220 WAT         6.6590   10.3440   20.3410 O      8220 WAT       0.0491
   8221 WAT         6.6590   10.3440   20.5910 O      8221 WAT       0.0453
   8222 WAT         6.6590   10.3440   23.0910 O      8222 WAT       0.0578
   8223 WAT         6.6590   10.3440   23.3410 O      8223 WAT       0.0863
   8224 WAT         6.6590   10.3440   23.5910 O      8224 WAT       0.0996
   8225 WAT         6.6590   10.3440   23.8410 O      8225 WAT       0.0867
   8226 WAT         6.6590   10.3440   24.0910 O      8226 WAT       0.0562
   8227 WAT         6.6590   10.5940   23.3410 O      8227 WAT       0.0664
   8228 WAT         6.6590   10.5940   23.5910 O      8228 WAT       0.0898
   8229 WAT         6.6590   10.5940   23.8410 O      8229 WAT       0.0914
   8230 WAT         6.6590   10.5940   24.0910 O      8230 WAT       0.0692
   8231 WAT         6.6590   10.8440   23.5910 O      8231 WAT       0.0704
   8232 WAT         6.6590   10.8440   23.8410 O      8232 WAT       0.0847
   8233 WAT         6.6590   10.8440   24.0910 O      8233 WAT       0.0757
   8234 WAT         6.6590   10.8440   24.3410 O      8234 WAT       0.0502
   8235 WAT         6.6590   11.0940   23.5910 O      8235 WAT       0.0493
   8236 WAT         6.6590   11.0940   23.8410 O      8236 WAT       0.0711
   8237 WAT         6.6590   11.0940   24.0910 O      8237 WAT       0.0762
   8238 WAT         6.6590   11.0940   24.3410 O      8238 WAT       0.0608
   8239 WAT         6.6590   11.3440   23.8410 O      8239 WAT       0.0564
   8240 WAT         6.6590   11.3440   24.0910 O      8240 WAT       0.0735
   8241 WAT         6.6590   11.3440   24.3410 O      8241 WAT       0.0711
   8242 WAT         6.6590   11.3440   24.5910 O      8242 WAT       0.0511
   8243 WAT         6.6590   11.5940   24.0910 O      8243 WAT       0.0690
   8244 WAT         6.6590   11.5940   24.3410 O      8244 WAT       0.0795
   8245 WAT         6.6590   11.5940   24.5910 O      8245 WAT       0.0671
   8246 WAT         6.6590   11.8440   24.0910 O      8246 WAT       0.0625
   8247 WAT         6.6590   11.8440   24.3410 O      8247 WAT       0.0825
   8248 WAT         6.6590   11.8440   24.5910 O      8248 WAT       0.0788
   8249 WAT         6.6590   11.8440   24.8410 O      8249 WAT       0.0546
   8250 WAT         6.6590   12.0940   24.0910 O      8250 WAT       0.0560
   8251 WAT         6.6590   12.0940   24.3410 O      8251 WAT       0.0802
   8252 WAT         6.6590   12.0940   24.5910 O      8252 WAT       0.0829
   8253 WAT         6.6590   12.0940   24.8410 O      8253 WAT       0.0615
   8254 WAT         6.6590   12.3440   24.0910 O      8254 WAT       0.0534
   8255 WAT         6.6590   12.3440   24.3410 O      8255 WAT       0.0788
   8256 WAT         6.6590   12.3440   24.5910 O      8256 WAT       0.0836
   8257 WAT         6.6590   12.3440   24.8410 O      8257 WAT       0.0636
   8258 WAT         6.6590   12.5940   24.0910 O      8258 WAT       0.0562
   8259 WAT         6.6590   12.5940   24.3410 O      8259 WAT       0.0811
   8260 WAT         6.6590   12.5940   24.5910 O      8260 WAT       0.0850
   8261 WAT         6.6590   12.5940   24.8410 O      8261 WAT       0.0640
   8262 WAT         6.6590   12.8440   24.0910 O      8262 WAT       0.0606
   8263 WAT         6.6590   12.8440   24.3410 O      8263 WAT       0.0817
   8264 WAT         6.6590   12.8440   24.5910 O      8264 WAT       0.0822
   8265 WAT         6.6590   12.8440   24.8410 O      8265 WAT       0.0603
   8266 WAT         6.6590   13.0940   24.0910 O      8266 WAT       0.0620
   8267 WAT         6.6590   13.0940   24.3410 O      8267 WAT       0.0736
   8268 WAT         6.6590   13.0940   24.5910 O      8268 WAT       0.0690
   8269 WAT         6.6590   13.0940   24.8410 O      8269 WAT       0.0484
   8270 WAT         6.6590   13.3440   23.5910 O      8270 WAT       0.0467
   8271 WAT         6.6590   13.3440   23.8410 O      8271 WAT       0.0538
   8272 WAT         6.6590   13.3440   24.0910 O      8272 WAT       0.0580
   8273 WAT         6.6590   13.3440   24.3410 O      8273 WAT       0.0571
   8274 WAT         6.6590   13.3440   24.5910 O      8274 WAT       0.0475
   8275 WAT         6.6590   13.5940   23.3410 O      8275 WAT       0.0506
   8276 WAT         6.6590   13.5940   23.5910 O      8276 WAT       0.0555
   8277 WAT         6.6590   13.5940   23.8410 O      8277 WAT       0.0538
   8278 WAT         6.6590   13.5940   24.0910 O      8278 WAT       0.0470
   8279 WAT         6.6590   13.8440   23.3410 O      8279 WAT       0.0480
   8280 WAT         6.6590   13.8440   23.5910 O      8280 WAT       0.0470
   8281 WAT         6.6590   14.3440   20.8410 O      8281 WAT       0.0493
   8282 WAT         6.6590   14.3440   21.0910 O      8282 WAT       0.0627
   8283 WAT         6.6590   14.3440   21.3410 O      8283 WAT       0.0703
   8284 WAT         6.6590   14.3440   21.5910 O      8284 WAT       0.0667
   8285 WAT         6.6590   14.3440   21.8410 O      8285 WAT       0.0542
   8286 WAT         6.6590   14.5940   20.3410 O      8286 WAT       0.0470
   8287 WAT         6.6590   14.5940   20.5910 O      8287 WAT       0.0654
   8288 WAT         6.6590   14.5940   20.8410 O      8288 WAT       0.0840
   8289 WAT         6.6590   14.5940   21.0910 O      8289 WAT       0.0981
   8290 WAT         6.6590   14.5940   21.3410 O      8290 WAT       0.0986
   8291 WAT         6.6590   14.5940   21.5910 O      8291 WAT       0.0824
   8292 WAT         6.6590   14.5940   21.8410 O      8292 WAT       0.0578
   8293 WAT         6.6590   14.8440   20.3410 O      8293 WAT       0.0584
   8294 WAT         6.6590   14.8440   20.5910 O      8294 WAT       0.0814
   8295 WAT         6.6590   14.8440   20.8410 O      8295 WAT       0.1006
   8296 WAT         6.6590   14.8440   21.0910 O      8296 WAT       0.1087
   8297 WAT         6.6590   14.8440   21.3410 O      8297 WAT       0.0987
   8298 WAT         6.6590   14.8440   21.5910 O      8298 WAT       0.0733
   8299 WAT         6.6590   15.0940   20.3410 O      8299 WAT       0.0528
   8300 WAT         6.6590   15.0940   20.5910 O      8300 WAT       0.0733
   8301 WAT         6.6590   15.0940   20.8410 O      8301 WAT       0.0869
   8302 WAT         6.6590   15.0940   21.0910 O      8302 WAT       0.0874
   8303 WAT         6.6590   15.0940   21.3410 O      8303 WAT       0.0721
   8304 WAT         6.6590   15.0940   21.5910 O      8304 WAT       0.0478
   8305 WAT         6.6590   15.0940   25.3410 O      8305 WAT       0.0496
   8306 WAT         6.6590   15.0940   25.5910 O      8306 WAT       0.0605
   8307 WAT         6.6590   15.0940   25.8410 O      8307 WAT       0.0498
   8308 WAT         6.6590   15.3440   14.0910 O      8308 WAT       0.0472
   8309 WAT         6.6590   15.3440   14.3410 O      8309 WAT       0.0485
   8310 WAT         6.6590   15.3440   14.5910 O      8310 WAT       0.0478
   8311 WAT         6.6590   15.3440   14.8410 O      8311 WAT       0.0464
   8312 WAT         6.6590   15.3440   20.5910 O      8312 WAT       0.0512
   8313 WAT         6.6590   15.3440   20.8410 O      8313 WAT       0.0580
   8314 WAT         6.6590   15.3440   21.0910 O      8314 WAT       0.0542
   8315 WAT         6.6590   15.3440   25.3410 O      8315 WAT       0.0697
   8316 WAT         6.6590   15.3440   25.5910 O      8316 WAT       0.0938
   8317 WAT         6.6590   15.3440   25.8410 O      8317 WAT       0.0838
   8318 WAT         6.6590   15.3440   26.0910 O      8318 WAT       0.0495
   8319 WAT         6.6590   15.5940   13.3410 O      8319 WAT       0.0492
   8320 WAT         6.6590   15.5940   13.5910 O      8320 WAT       0.0632
   8321 WAT         6.6590   15.5940   13.8410 O      8321 WAT       0.0689
   8322 WAT         6.6590   15.5940   14.0910 O      8322 WAT       0.0657
   8323 WAT         6.6590   15.5940   14.3410 O      8323 WAT       0.0574
   8324 WAT         6.6590   15.5940   14.5910 O      8324 WAT       0.0484
   8325 WAT         6.6590   15.5940   17.8410 O      8325 WAT       0.0538
   8326 WAT         6.6590   15.5940   18.0910 O      8326 WAT       0.0553
   8327 WAT         6.6590   15.5940   18.3410 O      8327 WAT       0.0472
   8328 WAT         6.6590   15.5940   25.3410 O      8328 WAT       0.0909
   8329 WAT         6.6590   15.5940   25.5910 O      8329 WAT       0.1283
   8330 WAT         6.6590   15.5940   25.8410 O      8330 WAT       0.1194
   8331 WAT         6.6590   15.5940   26.0910 O      8331 WAT       0.0732
   8332 WAT         6.6590   15.8440   12.8410 O      8332 WAT       0.0457
   8333 WAT         6.6590   15.8440   13.0910 O      8333 WAT       0.0690
   8334 WAT         6.6590   15.8440   13.3410 O      8334 WAT       0.0868
   8335 WAT         6.6590   15.8440   13.5910 O      8335 WAT       0.0912
   8336 WAT         6.6590   15.8440   13.8410 O      8336 WAT       0.0817
   8337 WAT         6.6590   15.8440   14.0910 O      8337 WAT       0.0644
   8338 WAT         6.6590   15.8440   14.3410 O      8338 WAT       0.0468
   8339 WAT         6.6590   15.8440   17.5910 O      8339 WAT       0.0602
   8340 WAT         6.6590   15.8440   17.8410 O      8340 WAT       0.0810
   8341 WAT         6.6590   15.8440   18.0910 O      8341 WAT       0.0873
   8342 WAT         6.6590   15.8440   18.3410 O      8342 WAT       0.0782
   8343 WAT         6.6590   15.8440   18.5910 O      8343 WAT       0.0598
   8344 WAT         6.6590   15.8440   25.0910 O      8344 WAT       0.0479
   8345 WAT         6.6590   15.8440   25.3410 O      8345 WAT       0.1042
   8346 WAT         6.6590   15.8440   25.5910 O      8346 WAT       0.1485
   8347 WAT         6.6590   15.8440   25.8410 O      8347 WAT       0.1392
   8348 WAT         6.6590   15.8440   26.0910 O      8348 WAT       0.0858
   8349 WAT         6.6590   16.0940   12.5910 O      8349 WAT       0.0603
   8350 WAT         6.6590   16.0940   12.8410 O      8350 WAT       0.0922
   8351 WAT         6.6590   16.0940   13.0910 O      8351 WAT       0.1150
   8352 WAT         6.6590   16.0940   13.3410 O      8352 WAT       0.1171
   8353 WAT         6.6590   16.0940   13.5910 O      8353 WAT       0.0987
   8354 WAT         6.6590   16.0940   13.8410 O      8354 WAT       0.0706
   8355 WAT         6.6590   16.0940   17.5910 O      8355 WAT       0.0565
   8356 WAT         6.6590   16.0940   17.8410 O      8356 WAT       0.0799
   8357 WAT         6.6590   16.0940   18.0910 O      8357 WAT       0.0912
   8358 WAT         6.6590   16.0940   18.3410 O      8358 WAT       0.0871
   8359 WAT         6.6590   16.0940   18.5910 O      8359 WAT       0.0708
   8360 WAT         6.6590   16.0940   18.8410 O      8360 WAT       0.0485
   8361 WAT         6.6590   16.0940   25.0910 O      8361 WAT       0.0468
   8362 WAT         6.6590   16.0940   25.3410 O      8362 WAT       0.0993
   8363 WAT         6.6590   16.0940   25.5910 O      8363 WAT       0.1390
   8364 WAT         6.6590   16.0940   25.8410 O      8364 WAT       0.1281
   8365 WAT         6.6590   16.0940   26.0910 O      8365 WAT       0.0774
   8366 WAT         6.6590   16.3440    9.5910 O      8366 WAT       0.0455
   8367 WAT         6.6590   16.3440    9.8410 O      8367 WAT       0.0479
   8368 WAT         6.6590   16.3440   10.0910 O      8368 WAT       0.0455
   8369 WAT         6.6590   16.3440   12.3410 O      8369 WAT       0.0650
   8370 WAT         6.6590   16.3440   12.5910 O      8370 WAT       0.1033
   8371 WAT         6.6590   16.3440   12.8410 O      8371 WAT       0.1356
   8372 WAT         6.6590   16.3440   13.0910 O      8372 WAT       0.1421
   8373 WAT         6.6590   16.3440   13.3410 O      8373 WAT       0.1185
   8374 WAT         6.6590   16.3440   13.5910 O      8374 WAT       0.0799
   8375 WAT         6.6590   16.3440   17.8410 O      8375 WAT       0.0516
   8376 WAT         6.6590   16.3440   18.0910 O      8376 WAT       0.0632
   8377 WAT         6.6590   16.3440   18.3410 O      8377 WAT       0.0650
   8378 WAT         6.6590   16.3440   18.5910 O      8378 WAT       0.0565
   8379 WAT         6.6590   16.3440   25.3410 O      8379 WAT       0.0742
   8380 WAT         6.6590   16.3440   25.5910 O      8380 WAT       0.1003
   8381 WAT         6.6590   16.3440   25.8410 O      8381 WAT       0.0892
   8382 WAT         6.6590   16.3440   26.0910 O      8382 WAT       0.0519
   8383 WAT         6.6590   16.5940    9.5910 O      8383 WAT       0.0492
   8384 WAT         6.6590   16.5940    9.8410 O      8384 WAT       0.0498
   8385 WAT         6.6590   16.5940   10.0910 O      8385 WAT       0.0456
   8386 WAT         6.6590   16.5940   12.0910 O      8386 WAT       0.0563
   8387 WAT         6.6590   16.5940   12.3410 O      8387 WAT       0.0883
   8388 WAT         6.6590   16.5940   12.5910 O      8388 WAT       0.1224
   8389 WAT         6.6590   16.5940   12.8410 O      8389 WAT       0.1395
   8390 WAT         6.6590   16.5940   13.0910 O      8390 WAT       0.1252
   8391 WAT         6.6590   16.5940   13.3410 O      8391 WAT       0.0872
   8392 WAT         6.6590   16.5940   13.5910 O      8392 WAT       0.0477
   8393 WAT         6.6590   16.5940   25.5910 O      8393 WAT       0.0529
   8394 WAT         6.6590   16.8440    9.3410 O      8394 WAT       0.0484
   8395 WAT         6.6590   16.8440    9.5910 O      8395 WAT       0.0517
   8396 WAT         6.6590   16.8440    9.8410 O      8396 WAT       0.0504
   8397 WAT         6.6590   16.8440   12.0910 O      8397 WAT       0.0603
   8398 WAT         6.6590   16.8440   12.3410 O      8398 WAT       0.0814
   8399 WAT         6.6590   16.8440   12.5910 O      8399 WAT       0.0979
   8400 WAT         6.6590   16.8440   12.8410 O      8400 WAT       0.0975
   8401 WAT         6.6590   16.8440   13.0910 O      8401 WAT       0.0759
   8402 WAT         6.6590   16.8440   13.3410 O      8402 WAT       0.0451
   8403 WAT         6.6590   17.0940    9.3410 O      8403 WAT       0.0495
   8404 WAT         6.6590   17.0940    9.5910 O      8404 WAT       0.0519
   8405 WAT         6.6590   17.0940    9.8410 O      8405 WAT       0.0493
   8406 WAT         6.6590   17.0940   12.3410 O      8406 WAT       0.0504
   8407 WAT         6.6590   17.0940   12.5910 O      8407 WAT       0.0520
   8408 WAT         6.6590   17.0940   12.8410 O      8408 WAT       0.0451
   8409 WAT         6.6590   17.3440    9.3410 O      8409 WAT       0.0478
   8410 WAT         6.6590   17.3440    9.5910 O      8410 WAT       0.0496
   8411 WAT         6.6590   17.3440    9.8410 O      8411 WAT       0.0461
   8412 WAT         6.6590   17.5940    9.5910 O      8412 WAT       0.0451
   8413 WAT         6.6590   19.3440    9.0910 O      8413 WAT       0.0462
   8414 WAT         6.6590   19.3440    9.3410 O      8414 WAT       0.0467
   8415 WAT         6.6590   19.5940    9.0910 O      8415 WAT       0.0453
   8416 WAT         6.6590   19.5940    9.3410 O      8416 WAT       0.0465
   8417 WAT         6.6590   21.3440    8.8410 O      8417 WAT       0.0476
   8418 WAT         6.6590   21.3440    9.0910 O      8418 WAT       0.0517
   8419 WAT         6.6590   21.3440    9.3410 O      8419 WAT       0.0486
   8420 WAT         6.6590   21.5940    8.8410 O      8420 WAT       0.0479
   8421 WAT         6.6590   21.5940    9.0910 O      8421 WAT       0.0547
   8422 WAT         6.6590   21.5940    9.3410 O      8422 WAT       0.0545
   8423 WAT         6.6590   21.5940    9.5910 O      8423 WAT       0.0490
   8424 WAT         6.6590   21.5940   11.5910 O      8424 WAT       0.0514
   8425 WAT         6.6590   21.5940   11.8410 O      8425 WAT       0.0470
   8426 WAT         6.6590   21.8440    9.0910 O      8426 WAT       0.0480
   8427 WAT         6.6590   21.8440    9.3410 O      8427 WAT       0.0522
   8428 WAT         6.6590   21.8440    9.5910 O      8428 WAT       0.0516
   8429 WAT         6.6590   21.8440    9.8410 O      8429 WAT       0.0486
   8430 WAT         6.6590   21.8440   11.5910 O      8430 WAT       0.0488
   8431 WAT         6.6590   21.8440   11.8410 O      8431 WAT       0.0465
   8432 WAT         6.6590   22.0940    9.5910 O      8432 WAT       0.0473
   8433 WAT         6.6590   22.0940    9.8410 O      8433 WAT       0.0490
   8434 WAT         6.6590   22.0940   10.0910 O      8434 WAT       0.0488
   8435 WAT         6.6590   22.0940   10.3410 O      8435 WAT       0.0475
   8436 WAT         6.6590   22.3440   10.0910 O      8436 WAT       0.0458
   8437 WAT         6.6590   22.3440   10.3410 O      8437 WAT       0.0466
   8438 WAT         6.6590   23.3440    7.3410 O      8438 WAT       0.0477
   8439 WAT         6.6590   23.3440    7.5910 O      8439 WAT       0.0588
   8440 WAT         6.6590   23.3440    7.8410 O      8440 WAT       0.0665
   8441 WAT         6.6590   23.3440    8.0910 O      8441 WAT       0.0688
   8442 WAT         6.6590   23.3440    8.3410 O      8442 WAT       0.0643
   8443 WAT         6.6590   23.3440    8.5910 O      8443 WAT       0.0529
   8444 WAT         6.6590   23.5940    6.8410 O      8444 WAT       0.0492
   8445 WAT         6.6590   23.5940    7.0910 O      8445 WAT       0.0719
   8446 WAT         6.6590   23.5940    7.3410 O      8446 WAT       0.0973
   8447 WAT         6.6590   23.5940    7.5910 O      8447 WAT       0.1203
   8448 WAT         6.6590   23.5940    7.8410 O      8448 WAT       0.1367
   8449 WAT         6.6590   23.5940    8.0910 O      8449 WAT       0.1433
   8450 WAT         6.6590   23.5940    8.3410 O      8450 WAT       0.1357
   8451 WAT         6.6590   23.5940    8.5910 O      8451 WAT       0.1113
   8452 WAT         6.6590   23.5940    8.8410 O      8452 WAT       0.0762
   8453 WAT         6.6590   23.8440    6.5910 O      8453 WAT       0.0488
   8454 WAT         6.6590   23.8440    6.8410 O      8454 WAT       0.0746
   8455 WAT         6.6590   23.8440    7.0910 O      8455 WAT       0.1093
   8456 WAT         6.6590   23.8440    7.3410 O      8456 WAT       0.1471
   8457 WAT         6.6590   23.8440    7.5910 O      8457 WAT       0.1813
   8458 WAT         6.6590   23.8440    7.8410 O      8458 WAT       0.2068
   8459 WAT         6.6590   23.8440    8.0910 O      8459 WAT       0.2195
   8460 WAT         6.6590   23.8440    8.3410 O      8460 WAT       0.2111
   8461 WAT         6.6590   23.8440    8.5910 O      8461 WAT       0.1744
   8462 WAT         6.6590   23.8440    8.8410 O      8462 WAT       0.1177
   8463 WAT         6.6590   23.8440    9.0910 O      8463 WAT       0.0633
   8464 WAT         6.6590   24.0940    4.3410 O      8464 WAT       0.0451
   8465 WAT         6.6590   24.0940    6.5910 O      8465 WAT       0.0527
   8466 WAT         6.6590   24.0940    6.8410 O      8466 WAT       0.0821
   8467 WAT         6.6590   24.0940    7.0910 O      8467 WAT       0.1203
   8468 WAT         6.6590   24.0940    7.3410 O      8468 WAT       0.1612
   8469 WAT         6.6590   24.0940    7.5910 O      8469 WAT       0.1984
   8470 WAT         6.6590   24.0940    7.8410 O      8470 WAT       0.2283
   8471 WAT         6.6590   24.0940    8.0910 O      8471 WAT       0.2467
   8472 WAT         6.6590   24.0940    8.3410 O      8472 WAT       0.2417
   8473 WAT         6.6590   24.0940    8.5910 O      8473 WAT       0.2017
   8474 WAT         6.6590   24.0940    8.8410 O      8474 WAT       0.1353
   8475 WAT         6.6590   24.0940    9.0910 O      8475 WAT       0.0705
   8476 WAT         6.6590   24.3440    6.8410 O      8476 WAT       0.0637
   8477 WAT         6.6590   24.3440    7.0910 O      8477 WAT       0.0938
   8478 WAT         6.6590   24.3440    7.3410 O      8478 WAT       0.1258
   8479 WAT         6.6590   24.3440    7.5910 O      8479 WAT       0.1558
   8480 WAT         6.6590   24.3440    7.8410 O      8480 WAT       0.1826
   8481 WAT         6.6590   24.3440    8.0910 O      8481 WAT       0.2029
   8482 WAT         6.6590   24.3440    8.3410 O      8482 WAT       0.2038
   8483 WAT         6.6590   24.3440    8.5910 O      8483 WAT       0.1722
   8484 WAT         6.6590   24.3440    8.8410 O      8484 WAT       0.1153
   8485 WAT         6.6590   24.3440    9.0910 O      8485 WAT       0.0588
   8486 WAT         6.6590   24.5940    7.0910 O      8486 WAT       0.0509
   8487 WAT         6.6590   24.5940    7.3410 O      8487 WAT       0.0690
   8488 WAT         6.6590   24.5940    7.5910 O      8488 WAT       0.0869
   8489 WAT         6.6590   24.5940    7.8410 O      8489 WAT       0.1052
   8490 WAT         6.6590   24.5940    8.0910 O      8490 WAT       0.1216
   8491 WAT         6.6590   24.5940    8.3410 O      8491 WAT       0.1261
   8492 WAT         6.6590   24.5940    8.5910 O      8492 WAT       0.1083
   8493 WAT         6.6590   24.5940    8.8410 O      8493 WAT       0.0727
   8494 WAT         6.6590   24.8440    8.0910 O      8494 WAT       0.0524
   8495 WAT         6.6590   24.8440    8.3410 O      8495 WAT       0.0566
   8496 WAT         6.6590   24.8440    8.5910 O      8496 WAT       0.0498
   8497 WAT         6.6590   25.8440    3.3410 O      8497 WAT       0.0519
   8498 WAT         6.6590   25.8440    3.5910 O      8498 WAT       0.0511
   8499 WAT         6.6590   26.0940    2.8410 O      8499 WAT       0.0603
   8500 WAT         6.6590   26.0940    3.0910 O      8500 WAT       0.0864
   8501 WAT         6.6590   26.0940    3.3410 O      8501 WAT       0.0975
   8502 WAT         6.6590   26.0940    3.5910 O      8502 WAT       0.0845
   8503 WAT         6.6590   26.0940    3.8410 O      8503 WAT       0.0556
   8504 WAT         6.6590   26.3440    2.5910 O      8504 WAT       0.0711
   8505 WAT         6.6590   26.3440    2.8410 O      8505 WAT       0.1138
   8506 WAT         6.6590   26.3440    3.0910 O      8506 WAT       0.1450
   8507 WAT         6.6590   26.3440    3.3410 O      8507 WAT       0.1441
   8508 WAT         6.6590   26.3440    3.5910 O      8508 WAT       0.1097
   8509 WAT         6.6590   26.3440    3.8410 O      8509 WAT       0.0632
   8510 WAT         6.6590   26.5940    2.5910 O      8510 WAT       0.1067
   8511 WAT         6.6590   26.5940    2.8410 O      8511 WAT       0.1562
   8512 WAT         6.6590   26.5940    3.0910 O      8512 WAT       0.1780
   8513 WAT         6.6590   26.5940    3.3410 O      8513 WAT       0.1560
   8514 WAT         6.6590   26.5940    3.5910 O      8514 WAT       0.1040
   8515 WAT         6.6590   26.5940    3.8410 O      8515 WAT       0.0522
   8516 WAT         6.6590   26.8440    2.5910 O      8516 WAT       0.1102
   8517 WAT         6.6590   26.8440    2.8410 O      8517 WAT       0.1484
   8518 WAT         6.6590   26.8440    3.0910 O      8518 WAT       0.1525
   8519 WAT         6.6590   26.8440    3.3410 O      8519 WAT       0.1185
   8520 WAT         6.6590   26.8440    3.5910 O      8520 WAT       0.0692
   8521 WAT         6.6590   27.0940    2.5910 O      8521 WAT       0.0762
   8522 WAT         6.6590   27.0940    2.8410 O      8522 WAT       0.0949
   8523 WAT         6.6590   27.0940    3.0910 O      8523 WAT       0.0884
   8524 WAT         6.6590   27.0940    3.3410 O      8524 WAT       0.0612
   8525 WAT         6.9090    8.3440   23.3410 O      8525 WAT       0.0574
   8526 WAT         6.9090    8.3440   23.5910 O      8526 WAT       0.0576
   8527 WAT         6.9090    8.5940   23.3410 O      8527 WAT       0.0506
   8528 WAT         6.9090    8.5940   23.5910 O      8528 WAT       0.0465
   8529 WAT         6.9090    8.8440   21.0910 O      8529 WAT       0.0485
   8530 WAT         6.9090    8.8440   21.3410 O      8530 WAT       0.0494
   8531 WAT         6.9090    8.8440   21.5910 O      8531 WAT       0.0451
   8532 WAT         6.9090    9.0940   20.5910 O      8532 WAT       0.0506
   8533 WAT         6.9090    9.0940   20.8410 O      8533 WAT       0.0592
   8534 WAT         6.9090    9.0940   21.0910 O      8534 WAT       0.0638
   8535 WAT         6.9090    9.0940   21.3410 O      8535 WAT       0.0626
   8536 WAT         6.9090    9.0940   21.5910 O      8536 WAT       0.0552
   8537 WAT         6.9090    9.3440   20.0910 O      8537 WAT       0.0482
   8538 WAT         6.9090    9.3440   20.3410 O      8538 WAT       0.0575
   8539 WAT         6.9090    9.3440   20.5910 O      8539 WAT       0.0667
   8540 WAT         6.9090    9.3440   20.8410 O      8540 WAT       0.0737
   8541 WAT         6.9090    9.3440   21.0910 O      8541 WAT       0.0754
   8542 WAT         6.9090    9.3440   21.3410 O      8542 WAT       0.0703
   8543 WAT         6.9090    9.3440   21.5910 O      8543 WAT       0.0597
   8544 WAT         6.9090    9.3440   21.8410 O      8544 WAT       0.0464
   8545 WAT         6.9090    9.3440   23.0910 O      8545 WAT       0.0466
   8546 WAT         6.9090    9.5940   19.8410 O      8546 WAT       0.0519
   8547 WAT         6.9090    9.5940   20.0910 O      8547 WAT       0.0620
   8548 WAT         6.9090    9.5940   20.3410 O      8548 WAT       0.0695
   8549 WAT         6.9090    9.5940   20.5910 O      8549 WAT       0.0750
   8550 WAT         6.9090    9.5940   20.8410 O      8550 WAT       0.0773
   8551 WAT         6.9090    9.5940   21.0910 O      8551 WAT       0.0745
   8552 WAT         6.9090    9.5940   21.3410 O      8552 WAT       0.0660
   8553 WAT         6.9090    9.5940   21.5910 O      8553 WAT       0.0535
   8554 WAT         6.9090    9.5940   23.0910 O      8554 WAT       0.0538
   8555 WAT         6.9090    9.5940   23.3410 O      8555 WAT       0.0528
   8556 WAT         6.9090    9.8440   19.5910 O      8556 WAT       0.0482
   8557 WAT         6.9090    9.8440   19.8410 O      8557 WAT       0.0599
   8558 WAT         6.9090    9.8440   20.0910 O      8558 WAT       0.0677
   8559 WAT         6.9090    9.8440   20.3410 O      8559 WAT       0.0704
   8560 WAT         6.9090    9.8440   20.5910 O      8560 WAT       0.0697
   8561 WAT         6.9090    9.8440   20.8410 O      8561 WAT       0.0666
   8562 WAT         6.9090    9.8440   21.0910 O      8562 WAT       0.0605
   8563 WAT         6.9090    9.8440   21.3410 O      8563 WAT       0.0511
   8564 WAT         6.9090    9.8440   23.0910 O      8564 WAT       0.0544
   8565 WAT         6.9090    9.8440   23.3410 O      8565 WAT       0.0593
   8566 WAT         6.9090    9.8440   23.5910 O      8566 WAT       0.0475
   8567 WAT         6.9090   10.0940   19.5910 O      8567 WAT       0.0509
   8568 WAT         6.9090   10.0940   19.8410 O      8568 WAT       0.0589
   8569 WAT         6.9090   10.0940   20.0910 O      8569 WAT       0.0618
   8570 WAT         6.9090   10.0940   20.3410 O      8570 WAT       0.0593
   8571 WAT         6.9090   10.0940   20.5910 O      8571 WAT       0.0535
   8572 WAT         6.9090   10.0940   20.8410 O      8572 WAT       0.0470
   8573 WAT         6.9090   10.0940   23.0910 O      8573 WAT       0.0465
   8574 WAT         6.9090   10.0940   23.3410 O      8574 WAT       0.0579
   8575 WAT         6.9090   10.0940   23.5910 O      8575 WAT       0.0537
   8576 WAT         6.9090   10.3440   19.5910 O      8576 WAT       0.0474
   8577 WAT         6.9090   10.3440   19.8410 O      8577 WAT       0.0499
   8578 WAT         6.9090   10.3440   20.0910 O      8578 WAT       0.0478
   8579 WAT         6.9090   10.3440   23.3410 O      8579 WAT       0.0488
   8580 WAT         6.9090   10.3440   23.5910 O      8580 WAT       0.0540
   8581 WAT         6.9090   10.5940   23.5910 O      8581 WAT       0.0485
   8582 WAT         6.9090   10.5940   23.8410 O      8582 WAT       0.0491
   8583 WAT         6.9090   10.8440   23.8410 O      8583 WAT       0.0492
   8584 WAT         6.9090   10.8440   24.0910 O      8584 WAT       0.0455
   8585 WAT         6.9090   11.0940   23.8410 O      8585 WAT       0.0465
   8586 WAT         6.9090   11.0940   24.0910 O      8586 WAT       0.0538
   8587 WAT         6.9090   11.0940   24.3410 O      8587 WAT       0.0463
   8588 WAT         6.9090   11.3440   24.0910 O      8588 WAT       0.0631
   8589 WAT         6.9090   11.3440   24.3410 O      8589 WAT       0.0679
   8590 WAT         6.9090   11.3440   24.5910 O      8590 WAT       0.0535
   8591 WAT         6.9090   11.5940   24.0910 O      8591 WAT       0.0714
   8592 WAT         6.9090   11.5940   24.3410 O      8592 WAT       0.0922
   8593 WAT         6.9090   11.5940   24.5910 O      8593 WAT       0.0853
   8594 WAT         6.9090   11.5940   24.8410 O      8594 WAT       0.0564
   8595 WAT         6.9090   11.8440   24.0910 O      8595 WAT       0.0749
   8596 WAT         6.9090   11.8440   24.3410 O      8596 WAT       0.1102
   8597 WAT         6.9090   11.8440   24.5910 O      8597 WAT       0.1144
   8598 WAT         6.9090   11.8440   24.8410 O      8598 WAT       0.0836
   8599 WAT         6.9090   12.0940   24.0910 O      8599 WAT       0.0736
   8600 WAT         6.9090   12.0940   24.3410 O      8600 WAT       0.1173
   8601 WAT         6.9090   12.0940   24.5910 O      8601 WAT       0.1308
   8602 WAT         6.9090   12.0940   24.8410 O      8602 WAT       0.1019
   8603 WAT         6.9090   12.0940   25.0910 O      8603 WAT       0.0554
   8604 WAT         6.9090   12.3440   24.0910 O      8604 WAT       0.0735
   8605 WAT         6.9090   12.3440   24.3410 O      8605 WAT       0.1204
   8606 WAT         6.9090   12.3440   24.5910 O      8606 WAT       0.1382
   8607 WAT         6.9090   12.3440   24.8410 O      8607 WAT       0.1106
   8608 WAT         6.9090   12.3440   25.0910 O      8608 WAT       0.0616
   8609 WAT         6.9090   12.5940   24.0910 O      8609 WAT       0.0786
   8610 WAT         6.9090   12.5940   24.3410 O      8610 WAT       0.1258
   8611 WAT         6.9090   12.5940   24.5910 O      8611 WAT       0.1431
   8612 WAT         6.9090   12.5940   24.8410 O      8612 WAT       0.1140
   8613 WAT         6.9090   12.5940   25.0910 O      8613 WAT       0.0630
   8614 WAT         6.9090   12.8440   24.0910 O      8614 WAT       0.0856
   8615 WAT         6.9090   12.8440   24.3410 O      8615 WAT       0.1271
   8616 WAT         6.9090   12.8440   24.5910 O      8616 WAT       0.1390
   8617 WAT         6.9090   12.8440   24.8410 O      8617 WAT       0.1079
   8618 WAT         6.9090   12.8440   25.0910 O      8618 WAT       0.0584
   8619 WAT         6.9090   13.0940   23.8410 O      8619 WAT       0.0585
   8620 WAT         6.9090   13.0940   24.0910 O      8620 WAT       0.0891
   8621 WAT         6.9090   13.0940   24.3410 O      8621 WAT       0.1155
   8622 WAT         6.9090   13.0940   24.5910 O      8622 WAT       0.1169
   8623 WAT         6.9090   13.0940   24.8410 O      8623 WAT       0.0868
   8624 WAT         6.9090   13.0940   25.0910 O      8624 WAT       0.0456
   8625 WAT         6.9090   13.3440   23.5910 O      8625 WAT       0.0529
   8626 WAT         6.9090   13.3440   23.8410 O      8626 WAT       0.0702
   8627 WAT         6.9090   13.3440   24.0910 O      8627 WAT       0.0845
   8628 WAT         6.9090   13.3440   24.3410 O      8628 WAT       0.0909
   8629 WAT         6.9090   13.3440   24.5910 O      8629 WAT       0.0815
   8630 WAT         6.9090   13.3440   24.8410 O      8630 WAT       0.0562
   8631 WAT         6.9090   13.5940   23.5910 O      8631 WAT       0.0591
   8632 WAT         6.9090   13.5940   23.8410 O      8632 WAT       0.0679
   8633 WAT         6.9090   13.5940   24.0910 O      8633 WAT       0.0682
   8634 WAT         6.9090   13.5940   24.3410 O      8634 WAT       0.0608
   8635 WAT         6.9090   13.5940   24.5910 O      8635 WAT       0.0467
   8636 WAT         6.9090   13.8440   23.5910 O      8636 WAT       0.0458
   8637 WAT         6.9090   13.8440   23.8410 O      8637 WAT       0.0478
   8638 WAT         6.9090   14.3440   20.0910 O      8638 WAT       0.0455
   8639 WAT         6.9090   14.3440   20.3410 O      8639 WAT       0.0552
   8640 WAT         6.9090   14.3440   20.5910 O      8640 WAT       0.0543
   8641 WAT         6.9090   14.3440   20.8410 O      8641 WAT       0.0488
   8642 WAT         6.9090   14.5940   20.0910 O      8642 WAT       0.0729
   8643 WAT         6.9090   14.5940   20.3410 O      8643 WAT       0.0917
   8644 WAT         6.9090   14.5940   20.5910 O      8644 WAT       0.0922
   8645 WAT         6.9090   14.5940   20.8410 O      8645 WAT       0.0819
   8646 WAT         6.9090   14.5940   21.0910 O      8646 WAT       0.0690
   8647 WAT         6.9090   14.5940   21.3410 O      8647 WAT       0.0543
   8648 WAT         6.9090   14.8440   19.8410 O      8648 WAT       0.0470
   8649 WAT         6.9090   14.8440   20.0910 O      8649 WAT       0.0816
   8650 WAT         6.9090   14.8440   20.3410 O      8650 WAT       0.1057
   8651 WAT         6.9090   14.8440   20.5910 O      8651 WAT       0.1083
   8652 WAT         6.9090   14.8440   20.8410 O      8652 WAT       0.0952
   8653 WAT         6.9090   14.8440   21.0910 O      8653 WAT       0.0757
   8654 WAT         6.9090   14.8440   21.3410 O      8654 WAT       0.0540
   8655 WAT         6.9090   14.8440   25.3410 O      8655 WAT       0.0716
   8656 WAT         6.9090   14.8440   25.5910 O      8656 WAT       0.0812
   8657 WAT         6.9090   14.8440   25.8410 O      8657 WAT       0.0624
   8658 WAT         6.9090   15.0940   14.8410 O      8658 WAT       0.0473
   8659 WAT         6.9090   15.0940   15.0910 O      8659 WAT       0.0511
   8660 WAT         6.9090   15.0940   15.3410 O      8660 WAT       0.0498
   8661 WAT         6.9090   15.0940   20.0910 O      8661 WAT       0.0657
   8662 WAT         6.9090   15.0940   20.3410 O      8662 WAT       0.0871
   8663 WAT         6.9090   15.0940   20.5910 O      8663 WAT       0.0904
   8664 WAT         6.9090   15.0940   20.8410 O      8664 WAT       0.0784
   8665 WAT         6.9090   15.0940   21.0910 O      8665 WAT       0.0592
   8666 WAT         6.9090   15.0940   25.0910 O      8666 WAT       0.0559
   8667 WAT         6.9090   15.0940   25.3410 O      8667 WAT       0.1063
   8668 WAT         6.9090   15.0940   25.5910 O      8668 WAT       0.1358
   8669 WAT         6.9090   15.0940   25.8410 O      8669 WAT       0.1159
   8670 WAT         6.9090   15.0940   26.0910 O      8670 WAT       0.0654
   8671 WAT         6.9090   15.3440   14.0910 O      8671 WAT       0.0518
   8672 WAT         6.9090   15.3440   14.3410 O      8672 WAT       0.0557
   8673 WAT         6.9090   15.3440   14.5910 O      8673 WAT       0.0578
   8674 WAT         6.9090   15.3440   14.8410 O      8674 WAT       0.0580
   8675 WAT         6.9090   15.3440   15.0910 O      8675 WAT       0.0545
   8676 WAT         6.9090   15.3440   15.3410 O      8676 WAT       0.0461
   8677 WAT         6.9090   15.3440   20.3410 O      8677 WAT       0.0541
   8678 WAT         6.9090   15.3440   20.5910 O      8678 WAT       0.0566
   8679 WAT         6.9090   15.3440   20.8410 O      8679 WAT       0.0482
   8680 WAT         6.9090   15.3440   25.0910 O      8680 WAT       0.0681
   8681 WAT         6.9090   15.3440   25.3410 O      8681 WAT       0.1442
   8682 WAT         6.9090   15.3440   25.5910 O      8682 WAT       0.2007
   8683 WAT         6.9090   15.3440   25.8410 O      8683 WAT       0.1838
   8684 WAT         6.9090   15.3440   26.0910 O      8684 WAT       0.1106
   8685 WAT         6.9090   15.5940   10.0910 O      8685 WAT       0.0456
   8686 WAT         6.9090   15.5940   10.3410 O      8686 WAT       0.0467
   8687 WAT         6.9090   15.5940   13.3410 O      8687 WAT       0.0489
   8688 WAT         6.9090   15.5940   13.5910 O      8688 WAT       0.0648
   8689 WAT         6.9090   15.5940   13.8410 O      8689 WAT       0.0728
   8690 WAT         6.9090   15.5940   14.0910 O      8690 WAT       0.0718
   8691 WAT         6.9090   15.5940   14.3410 O      8691 WAT       0.0656
   8692 WAT         6.9090   15.5940   14.5910 O      8692 WAT       0.0583
   8693 WAT         6.9090   15.5940   14.8410 O      8693 WAT       0.0510
   8694 WAT         6.9090   15.5940   17.3410 O      8694 WAT       0.0455
   8695 WAT         6.9090   15.5940   17.5910 O      8695 WAT       0.0678
   8696 WAT         6.9090   15.5940   17.8410 O      8696 WAT       0.0775
   8697 WAT         6.9090   15.5940   18.0910 O      8697 WAT       0.0697
   8698 WAT         6.9090   15.5940   18.3410 O      8698 WAT       0.0515
   8699 WAT         6.9090   15.5940   25.0910 O      8699 WAT       0.0781
   8700 WAT         6.9090   15.5940   25.3410 O      8700 WAT       0.1753
   8701 WAT         6.9090   15.5940   25.5910 O      8701 WAT       0.2558
   8702 WAT         6.9090   15.5940   25.8410 O      8702 WAT       0.2441
   8703 WAT         6.9090   15.5940   26.0910 O      8703 WAT       0.1521
   8704 WAT         6.9090   15.5940   26.3410 O      8704 WAT       0.0614
   8705 WAT         6.9090   15.8440    9.8410 O      8705 WAT       0.0465
   8706 WAT         6.9090   15.8440   10.0910 O      8706 WAT       0.0485
   8707 WAT         6.9090   15.8440   10.3410 O      8707 WAT       0.0465
   8708 WAT         6.9090   15.8440   13.0910 O      8708 WAT       0.0611
   8709 WAT         6.9090   15.8440   13.3410 O      8709 WAT       0.0816
   8710 WAT         6.9090   15.8440   13.5910 O      8710 WAT       0.0906
   8711 WAT         6.9090   15.8440   13.8410 O      8711 WAT       0.0853
   8712 WAT         6.9090   15.8440   14.0910 O      8712 WAT       0.0702
   8713 WAT         6.9090   15.8440   14.3410 O      8713 WAT       0.0534
   8714 WAT         6.9090   15.8440   17.3410 O      8714 WAT       0.0602
   8715 WAT         6.9090   15.8440   17.5910 O      8715 WAT       0.0922
   8716 WAT         6.9090   15.8440   17.8410 O      8716 WAT       0.1090
   8717 WAT         6.9090   15.8440   18.0910 O      8717 WAT       0.1020
   8718 WAT         6.9090   15.8440   18.3410 O      8718 WAT       0.0789
   8719 WAT         6.9090   15.8440   18.5910 O      8719 WAT       0.0519
   8720 WAT         6.9090   15.8440   25.0910 O      8720 WAT       0.0804
   8721 WAT         6.9090   15.8440   25.3410 O      8721 WAT       0.1841
   8722 WAT         6.9090   15.8440   25.5910 O      8722 WAT       0.2736
   8723 WAT         6.9090   15.8440   25.8410 O      8723 WAT       0.2650
   8724 WAT         6.9090   15.8440   26.0910 O      8724 WAT       0.1671
   8725 WAT         6.9090   15.8440   26.3410 O      8725 WAT       0.0681
   8726 WAT         6.9090   16.0940    9.5910 O      8726 WAT       0.0457
   8727 WAT         6.9090   16.0940    9.8410 O      8727 WAT       0.0494
   8728 WAT         6.9090   16.0940   10.0910 O      8728 WAT       0.0489
   8729 WAT         6.9090   16.0940   12.8410 O      8729 WAT       0.0691
   8730 WAT         6.9090   16.0940   13.0910 O      8730 WAT       0.0935
   8731 WAT         6.9090   16.0940   13.3410 O      8731 WAT       0.1029
   8732 WAT         6.9090   16.0940   13.5910 O      8732 WAT       0.0935
   8733 WAT         6.9090   16.0940   13.8410 O      8733 WAT       0.0718
   8734 WAT         6.9090   16.0940   14.0910 O      8734 WAT       0.0482
   8735 WAT         6.9090   16.0940   17.3410 O      8735 WAT       0.0507
   8736 WAT         6.9090   16.0940   17.5910 O      8736 WAT       0.0800
   8737 WAT         6.9090   16.0940   17.8410 O      8737 WAT       0.0983
   8738 WAT         6.9090   16.0940   18.0910 O      8738 WAT       0.0967
   8739 WAT         6.9090   16.0940   18.3410 O      8739 WAT       0.0792
   8740 WAT         6.9090   16.0940   18.5910 O      8740 WAT       0.0553
   8741 WAT         6.9090   16.0940   25.0910 O      8741 WAT       0.0709
   8742 WAT         6.9090   16.0940   25.3410 O      8742 WAT       0.1612
   8743 WAT         6.9090   16.0940   25.5910 O      8743 WAT       0.2380
   8744 WAT         6.9090   16.0940   25.8410 O      8744 WAT       0.2288
   8745 WAT         6.9090   16.0940   26.0910 O      8745 WAT       0.1428
   8746 WAT         6.9090   16.0940   26.3410 O      8746 WAT       0.0574
   8747 WAT         6.9090   16.3440    9.5910 O      8747 WAT       0.0485
   8748 WAT         6.9090   16.3440    9.8410 O      8748 WAT       0.0503
   8749 WAT         6.9090   16.3440   10.0910 O      8749 WAT       0.0473
   8750 WAT         6.9090   16.3440   12.5910 O      8750 WAT       0.0662
   8751 WAT         6.9090   16.3440   12.8410 O      8751 WAT       0.0944
   8752 WAT         6.9090   16.3440   13.0910 O      8752 WAT       0.1072
   8753 WAT         6.9090   16.3440   13.3410 O      8753 WAT       0.0969
   8754 WAT         6.9090   16.3440   13.5910 O      8754 WAT       0.0711
   8755 WAT         6.9090   16.3440   17.8410 O      8755 WAT       0.0568
   8756 WAT         6.9090   16.3440   18.0910 O      8756 WAT       0.0592
   8757 WAT         6.9090   16.3440   18.3410 O      8757 WAT       0.0518
   8758 WAT         6.9090   16.3440   25.0910 O      8758 WAT       0.0505
   8759 WAT         6.9090   16.3440   25.3410 O      8759 WAT       0.1119
   8760 WAT         6.9090   16.3440   25.5910 O      8760 WAT       0.1614
   8761 WAT         6.9090   16.3440   25.8410 O      8761 WAT       0.1513
   8762 WAT         6.9090   16.3440   26.0910 O      8762 WAT       0.0919
   8763 WAT         6.9090   16.5940    9.3410 O      8763 WAT       0.0465
   8764 WAT         6.9090   16.5940    9.5910 O      8764 WAT       0.0499
   8765 WAT         6.9090   16.5940    9.8410 O      8765 WAT       0.0494
   8766 WAT         6.9090   16.5940   12.3410 O      8766 WAT       0.0488
   8767 WAT         6.9090   16.5940   12.5910 O      8767 WAT       0.0743
   8768 WAT         6.9090   16.5940   12.8410 O      8768 WAT       0.0919
   8769 WAT         6.9090   16.5940   13.0910 O      8769 WAT       0.0888
   8770 WAT         6.9090   16.5940   13.3410 O      8770 WAT       0.0666
   8771 WAT         6.9090   16.5940   25.3410 O      8771 WAT       0.0582
   8772 WAT         6.9090   16.5940   25.5910 O      8772 WAT       0.0810
   8773 WAT         6.9090   16.5940   25.8410 O      8773 WAT       0.0733
   8774 WAT         6.9090   16.8440    9.3410 O      8774 WAT       0.0477
   8775 WAT         6.9090   16.8440    9.5910 O      8775 WAT       0.0494
   8776 WAT         6.9090   16.8440    9.8410 O      8776 WAT       0.0468
   8777 WAT         6.9090   16.8440   12.5910 O      8777 WAT       0.0569
   8778 WAT         6.9090   16.8440   12.8410 O      8778 WAT       0.0614
   8779 WAT         6.9090   16.8440   13.0910 O      8779 WAT       0.0512
   8780 WAT         6.9090   17.0940    9.3410 O      8780 WAT       0.0466
   8781 WAT         6.9090   17.0940    9.5910 O      8781 WAT       0.0468
   8782 WAT         6.9090   19.0940    8.8410 O      8782 WAT       0.0493
   8783 WAT         6.9090   19.0940    9.0910 O      8783 WAT       0.0501
   8784 WAT         6.9090   19.3440    8.5910 O      8784 WAT       0.0451
   8785 WAT         6.9090   19.3440    8.8410 O      8785 WAT       0.0524
   8786 WAT         6.9090   19.3440    9.0910 O      8786 WAT       0.0555
   8787 WAT         6.9090   19.3440    9.3410 O      8787 WAT       0.0510
   8788 WAT         6.9090   19.5940    8.8410 O      8788 WAT       0.0526
   8789 WAT         6.9090   19.5940    9.0910 O      8789 WAT       0.0577
   8790 WAT         6.9090   19.5940    9.3410 O      8790 WAT       0.0550
   8791 WAT         6.9090   19.8440    8.8410 O      8791 WAT       0.0489
   8792 WAT         6.9090   19.8440    9.0910 O      8792 WAT       0.0549
   8793 WAT         6.9090   19.8440    9.3410 O      8793 WAT       0.0539
   8794 WAT         6.9090   20.0940    9.0910 O      8794 WAT       0.0477
   8795 WAT         6.9090   20.0940    9.3410 O      8795 WAT       0.0475
   8796 WAT         6.9090   21.0940    8.8410 O      8796 WAT       0.0452
   8797 WAT         6.9090   21.0940    9.0910 O      8797 WAT       0.0484
   8798 WAT         6.9090   21.3440    8.8410 O      8798 WAT       0.0539
   8799 WAT         6.9090   21.3440    9.0910 O      8799 WAT       0.0588
   8800 WAT         6.9090   21.3440    9.3410 O      8800 WAT       0.0549
   8801 WAT         6.9090   21.5940    6.5910 O      8801 WAT       0.0454
   8802 WAT         6.9090   21.5940    8.8410 O      8802 WAT       0.0543
   8803 WAT         6.9090   21.5940    9.0910 O      8803 WAT       0.0617
   8804 WAT         6.9090   21.5940    9.3410 O      8804 WAT       0.0604
   8805 WAT         6.9090   21.5940    9.5910 O      8805 WAT       0.0525
   8806 WAT         6.9090   21.8440    9.0910 O      8806 WAT       0.0544
   8807 WAT         6.9090   21.8440    9.3410 O      8807 WAT       0.0576
   8808 WAT         6.9090   21.8440    9.5910 O      8808 WAT       0.0549
   8809 WAT         6.9090   21.8440    9.8410 O      8809 WAT       0.0501
   8810 WAT         6.9090   21.8440   10.0910 O      8810 WAT       0.0458
   8811 WAT         6.9090   22.0940    9.3410 O      8811 WAT       0.0483
   8812 WAT         6.9090   22.0940    9.5910 O      8812 WAT       0.0511
   8813 WAT         6.9090   22.0940    9.8410 O      8813 WAT       0.0513
   8814 WAT         6.9090   22.0940   10.0910 O      8814 WAT       0.0509
   8815 WAT         6.9090   22.0940   10.3410 O      8815 WAT       0.0503
   8816 WAT         6.9090   22.0940   10.5910 O      8816 WAT       0.0478
   8817 WAT         6.9090   22.3440    9.8410 O      8817 WAT       0.0473
   8818 WAT         6.9090   22.3440   10.0910 O      8818 WAT       0.0502
   8819 WAT         6.9090   22.3440   10.3410 O      8819 WAT       0.0520
   8820 WAT         6.9090   22.3440   10.5910 O      8820 WAT       0.0506
   8821 WAT         6.9090   22.5940   10.3410 O      8821 WAT       0.0468
   8822 WAT         6.9090   22.5940   10.5910 O      8822 WAT       0.0455
   8823 WAT         6.9090   23.3440    7.8410 O      8823 WAT       0.0497
   8824 WAT         6.9090   23.3440    8.0910 O      8824 WAT       0.0519
   8825 WAT         6.9090   23.3440    8.3410 O      8825 WAT       0.0491
   8826 WAT         6.9090   23.5940    7.0910 O      8826 WAT       0.0512
   8827 WAT         6.9090   23.5940    7.3410 O      8827 WAT       0.0716
   8828 WAT         6.9090   23.5940    7.5910 O      8828 WAT       0.0900
   8829 WAT         6.9090   23.5940    7.8410 O      8829 WAT       0.1032
   8830 WAT         6.9090   23.5940    8.0910 O      8830 WAT       0.1087
   8831 WAT         6.9090   23.5940    8.3410 O      8831 WAT       0.1031
   8832 WAT         6.9090   23.5940    8.5910 O      8832 WAT       0.0851
   8833 WAT         6.9090   23.5940    8.8410 O      8833 WAT       0.0600
   8834 WAT         6.9090   23.8440    4.3410 O      8834 WAT       0.0500
   8835 WAT         6.9090   23.8440    4.5910 O      8835 WAT       0.0502
   8836 WAT         6.9090   23.8440    6.8410 O      8836 WAT       0.0526
   8837 WAT         6.9090   23.8440    7.0910 O      8837 WAT       0.0810
   8838 WAT         6.9090   23.8440    7.3410 O      8838 WAT       0.1117
   8839 WAT         6.9090   23.8440    7.5910 O      8839 WAT       0.1395
   8840 WAT         6.9090   23.8440    7.8410 O      8840 WAT       0.1605
   8841 WAT         6.9090   23.8440    8.0910 O      8841 WAT       0.1712
   8842 WAT         6.9090   23.8440    8.3410 O      8842 WAT       0.1646
   8843 WAT         6.9090   23.8440    8.5910 O      8843 WAT       0.1360
   8844 WAT         6.9090   23.8440    8.8410 O      8844 WAT       0.0930
   8845 WAT         6.9090   23.8440    9.0910 O      8845 WAT       0.0528
   8846 WAT         6.9090   23.8440   17.8410 O      8846 WAT       0.0514
   8847 WAT         6.9090   23.8440   18.0910 O      8847 WAT       0.0891
   8848 WAT         6.9090   23.8440   18.3410 O      8848 WAT       0.0966
   8849 WAT         6.9090   23.8440   18.5910 O      8849 WAT       0.0663
   8850 WAT         6.9090   24.0940    4.0910 O      8850 WAT       0.0505
   8851 WAT         6.9090   24.0940    4.3410 O      8851 WAT       0.0577
   8852 WAT         6.9090   24.0940    4.5910 O      8852 WAT       0.0584
   8853 WAT         6.9090   24.0940    4.8410 O      8853 WAT       0.0514
   8854 WAT         6.9090   24.0940    6.8410 O      8854 WAT       0.0606
   8855 WAT         6.9090   24.0940    7.0910 O      8855 WAT       0.0922
   8856 WAT         6.9090   24.0940    7.3410 O      8856 WAT       0.1258
   8857 WAT         6.9090   24.0940    7.5910 O      8857 WAT       0.1567
   8858 WAT         6.9090   24.0940    7.8410 O      8858 WAT       0.1821
   8859 WAT         6.9090   24.0940    8.0910 O      8859 WAT       0.1981
   8860 WAT         6.9090   24.0940    8.3410 O      8860 WAT       0.1944
   8861 WAT         6.9090   24.0940    8.5910 O      8861 WAT       0.1621
   8862 WAT         6.9090   24.0940    8.8410 O      8862 WAT       0.1097
   8863 WAT         6.9090   24.0940    9.0910 O      8863 WAT       0.0592
   8864 WAT         6.9090   24.0940   17.8410 O      8864 WAT       0.0905
   8865 WAT         6.9090   24.0940   18.0910 O      8865 WAT       0.1526
   8866 WAT         6.9090   24.0940   18.3410 O      8866 WAT       0.1616
   8867 WAT         6.9090   24.0940   18.5910 O      8867 WAT       0.1082
   8868 WAT         6.9090   24.3440    4.0910 O      8868 WAT       0.0503
   8869 WAT         6.9090   24.3440    4.3410 O      8869 WAT       0.0582
   8870 WAT         6.9090   24.3440    4.5910 O      8870 WAT       0.0592
   8871 WAT         6.9090   24.3440    4.8410 O      8871 WAT       0.0521
   8872 WAT         6.9090   24.3440    6.8410 O      8872 WAT       0.0488
   8873 WAT         6.9090   24.3440    7.0910 O      8873 WAT       0.0738
   8874 WAT         6.9090   24.3440    7.3410 O      8874 WAT       0.1003
   8875 WAT         6.9090   24.3440    7.5910 O      8875 WAT       0.1257
   8876 WAT         6.9090   24.3440    7.8410 O      8876 WAT       0.1490
   8877 WAT         6.9090   24.3440    8.0910 O      8877 WAT       0.1671
   8878 WAT         6.9090   24.3440    8.3410 O      8878 WAT       0.1685
   8879 WAT         6.9090   24.3440    8.5910 O      8879 WAT       0.1427
   8880 WAT         6.9090   24.3440    8.8410 O      8880 WAT       0.0963
   8881 WAT         6.9090   24.3440    9.0910 O      8881 WAT       0.0505
   8882 WAT         6.9090   24.3440   17.8410 O      8882 WAT       0.0986
   8883 WAT         6.9090   24.3440   18.0910 O      8883 WAT       0.1640
   8884 WAT         6.9090   24.3440   18.3410 O      8884 WAT       0.1705
   8885 WAT         6.9090   24.3440   18.5910 O      8885 WAT       0.1112
   8886 WAT         6.9090   24.5940    4.3410 O      8886 WAT       0.0504
   8887 WAT         6.9090   24.5940    4.5910 O      8887 WAT       0.0507
   8888 WAT         6.9090   24.5940    7.3410 O      8888 WAT       0.0560
   8889 WAT         6.9090   24.5940    7.5910 O      8889 WAT       0.0713
   8890 WAT         6.9090   24.5940    7.8410 O      8890 WAT       0.0874
   8891 WAT         6.9090   24.5940    8.0910 O      8891 WAT       0.1021
   8892 WAT         6.9090   24.5940    8.3410 O      8892 WAT       0.1066
   8893 WAT         6.9090   24.5940    8.5910 O      8893 WAT       0.0921
   8894 WAT         6.9090   24.5940    8.8410 O      8894 WAT       0.0624
   8895 WAT         6.9090   24.5940   17.8410 O      8895 WAT       0.0665
   8896 WAT         6.9090   24.5940   18.0910 O      8896 WAT       0.1101
   8897 WAT         6.9090   24.5940   18.3410 O      8897 WAT       0.1127
   8898 WAT         6.9090   24.5940   18.5910 O      8898 WAT       0.0716
   8899 WAT         6.9090   24.8440    8.3410 O      8899 WAT       0.0488
   8900 WAT         6.9090   24.8440   18.0910 O      8900 WAT       0.0450
   8901 WAT         6.9090   24.8440   18.3410 O      8901 WAT       0.0454
   8902 WAT         6.9090   25.8440    3.3410 O      8902 WAT       0.0563
   8903 WAT         6.9090   25.8440    3.5910 O      8903 WAT       0.0594
   8904 WAT         6.9090   25.8440    3.8410 O      8904 WAT       0.0491
   8905 WAT         6.9090   26.0940    2.8410 O      8905 WAT       0.0635
   8906 WAT         6.9090   26.0940    3.0910 O      8906 WAT       0.0949
   8907 WAT         6.9090   26.0940    3.3410 O      8907 WAT       0.1119
   8908 WAT         6.9090   26.0940    3.5910 O      8908 WAT       0.1028
   8909 WAT         6.9090   26.0940    3.8410 O      8909 WAT       0.0733
   8910 WAT         6.9090   26.3440    2.5910 O      8910 WAT       0.0720
   8911 WAT         6.9090   26.3440    2.8410 O      8911 WAT       0.1224
   8912 WAT         6.9090   26.3440    3.0910 O      8912 WAT       0.1642
   8913 WAT         6.9090   26.3440    3.3410 O      8913 WAT       0.1713
   8914 WAT         6.9090   26.3440    3.5910 O      8914 WAT       0.1379
   8915 WAT         6.9090   26.3440    3.8410 O      8915 WAT       0.0855
   8916 WAT         6.9090   26.5940    2.5910 O      8916 WAT       0.1072
   8917 WAT         6.9090   26.5940    2.8410 O      8917 WAT       0.1678
   8918 WAT         6.9090   26.5940    3.0910 O      8918 WAT       0.2033
   8919 WAT         6.9090   26.5940    3.3410 O      8919 WAT       0.1888
   8920 WAT         6.9090   26.5940    3.5910 O      8920 WAT       0.1339
   8921 WAT         6.9090   26.5940    3.8410 O      8921 WAT       0.0723
   8922 WAT         6.9090   26.8440    2.5910 O      8922 WAT       0.1083
   8923 WAT         6.9090   26.8440    2.8410 O      8923 WAT       0.1572
   8924 WAT         6.9090   26.8440    3.0910 O      8924 WAT       0.1733
   8925 WAT         6.9090   26.8440    3.3410 O      8925 WAT       0.1442
   8926 WAT         6.9090   26.8440    3.5910 O      8926 WAT       0.0903
   8927 WAT         6.9090   27.0940    2.5910 O      8927 WAT       0.0724
   8928 WAT         6.9090   27.0940    2.8410 O      8928 WAT       0.0978
   8929 WAT         6.9090   27.0940    3.0910 O      8929 WAT       0.0987
   8930 WAT         6.9090   27.0940    3.3410 O      8930 WAT       0.0740
   8931 WAT         7.1590    8.3440   23.3410 O      8931 WAT       0.0514
   8932 WAT         7.1590    8.3440   23.5910 O      8932 WAT       0.0473
   8933 WAT         7.1590    8.8440   20.8410 O      8933 WAT       0.0468
   8934 WAT         7.1590    8.8440   21.0910 O      8934 WAT       0.0493
   8935 WAT         7.1590    8.8440   21.3410 O      8935 WAT       0.0473
   8936 WAT         7.1590    9.0940   20.3410 O      8936 WAT       0.0502
   8937 WAT         7.1590    9.0940   20.5910 O      8937 WAT       0.0561
   8938 WAT         7.1590    9.0940   20.8410 O      8938 WAT       0.0605
   8939 WAT         7.1590    9.0940   21.0910 O      8939 WAT       0.0607
   8940 WAT         7.1590    9.0940   21.3410 O      8940 WAT       0.0557
   8941 WAT         7.1590    9.0940   21.5910 O      8941 WAT       0.0463
   8942 WAT         7.1590    9.3440   19.8410 O      8942 WAT       0.0528
   8943 WAT         7.1590    9.3440   20.0910 O      8943 WAT       0.0606
   8944 WAT         7.1590    9.3440   20.3410 O      8944 WAT       0.0654
   8945 WAT         7.1590    9.3440   20.5910 O      8945 WAT       0.0685
   8946 WAT         7.1590    9.3440   20.8410 O      8946 WAT       0.0691
   8947 WAT         7.1590    9.3440   21.0910 O      8947 WAT       0.0653
   8948 WAT         7.1590    9.3440   21.3410 O      8948 WAT       0.0566
   8949 WAT         7.1590    9.5940   19.5910 O      8949 WAT       0.0553
   8950 WAT         7.1590    9.5940   19.8410 O      8950 WAT       0.0666
   8951 WAT         7.1590    9.5940   20.0910 O      8951 WAT       0.0722
   8952 WAT         7.1590    9.5940   20.3410 O      8952 WAT       0.0725
   8953 WAT         7.1590    9.5940   20.5910 O      8953 WAT       0.0699
   8954 WAT         7.1590    9.5940   20.8410 O      8954 WAT       0.0651
   8955 WAT         7.1590    9.5940   21.0910 O      8955 WAT       0.0573
   8956 WAT         7.1590    9.5940   21.3410 O      8956 WAT       0.0467
   8957 WAT         7.1590    9.8440   19.3410 O      8957 WAT       0.0492
   8958 WAT         7.1590    9.8440   19.5910 O      8958 WAT       0.0625
   8959 WAT         7.1590    9.8440   19.8410 O      8959 WAT       0.0710
   8960 WAT         7.1590    9.8440   20.0910 O      8960 WAT       0.0719
   8961 WAT         7.1590    9.8440   20.3410 O      8961 WAT       0.0666
   8962 WAT         7.1590    9.8440   20.5910 O      8962 WAT       0.0584
   8963 WAT         7.1590    9.8440   20.8410 O      8963 WAT       0.0496
   8964 WAT         7.1590   10.0940   19.3410 O      8964 WAT       0.0515
   8965 WAT         7.1590   10.0940   19.5910 O      8965 WAT       0.0607
   8966 WAT         7.1590   10.0940   19.8410 O      8966 WAT       0.0635
   8967 WAT         7.1590   10.0940   20.0910 O      8967 WAT       0.0594
   8968 WAT         7.1590   10.0940   20.3410 O      8968 WAT       0.0503
   8969 WAT         7.1590   10.3440   19.3410 O      8969 WAT       0.0483
   8970 WAT         7.1590   10.3440   19.5910 O      8970 WAT       0.0514
   8971 WAT         7.1590   10.3440   19.8410 O      8971 WAT       0.0484
   8972 WAT         7.1590   11.3440   24.3410 O      8972 WAT       0.0501
   8973 WAT         7.1590   11.5940   24.0910 O      8973 WAT       0.0564
   8974 WAT         7.1590   11.5940   24.3410 O      8974 WAT       0.0822
   8975 WAT         7.1590   11.5940   24.5910 O      8975 WAT       0.0842
   8976 WAT         7.1590   11.5940   24.8410 O      8976 WAT       0.0601
   8977 WAT         7.1590   11.8440   24.0910 O      8977 WAT       0.0693
   8978 WAT         7.1590   11.8440   24.3410 O      8978 WAT       0.1132
   8979 WAT         7.1590   11.8440   24.5910 O      8979 WAT       0.1278
   8980 WAT         7.1590   11.8440   24.8410 O      8980 WAT       0.0993
   8981 WAT         7.1590   11.8440   25.0910 O      8981 WAT       0.0529
   8982 WAT         7.1590   12.0940   18.3410 O      8982 WAT       0.0461
   8983 WAT         7.1590   12.0940   18.5910 O      8983 WAT       0.0481
   8984 WAT         7.1590   12.0940   24.0910 O      8984 WAT       0.0763
   8985 WAT         7.1590   12.0940   24.3410 O      8985 WAT       0.1337
   8986 WAT         7.1590   12.0940   24.5910 O      8986 WAT       0.1606
   8987 WAT         7.1590   12.0940   24.8410 O      8987 WAT       0.1321
   8988 WAT         7.1590   12.0940   25.0910 O      8988 WAT       0.0743
   8989 WAT         7.1590   12.3440   18.3410 O      8989 WAT       0.0450
   8990 WAT         7.1590   12.3440   18.5910 O      8990 WAT       0.0453
   8991 WAT         7.1590   12.3440   24.0910 O      8991 WAT       0.0820
   8992 WAT         7.1590   12.3440   24.3410 O      8992 WAT       0.1474
   8993 WAT         7.1590   12.3440   24.5910 O      8993 WAT       0.1820
   8994 WAT         7.1590   12.3440   24.8410 O      8994 WAT       0.1538
   8995 WAT         7.1590   12.3440   25.0910 O      8995 WAT       0.0887
   8996 WAT         7.1590   12.5940   24.0910 O      8996 WAT       0.0910
   8997 WAT         7.1590   12.5940   24.3410 O      8997 WAT       0.1598
   8998 WAT         7.1590   12.5940   24.5910 O      8998 WAT       0.1960
   8999 WAT         7.1590   12.5940   24.8410 O      8999 WAT       0.1655
   9000 WAT         7.1590   12.5940   25.0910 O      9000 WAT       0.0952
   9001 WAT         7.1590   12.8440   23.8410 O      9001 WAT       0.0483
   9002 WAT         7.1590   12.8440   24.0910 O      9002 WAT       0.1016
   9003 WAT         7.1590   12.8440   24.3410 O      9003 WAT       0.1648
   9004 WAT         7.1590   12.8440   24.5910 O      9004 WAT       0.1941
   9005 WAT         7.1590   12.8440   24.8410 O      9005 WAT       0.1601
   9006 WAT         7.1590   12.8440   25.0910 O      9006 WAT       0.0905
   9007 WAT         7.1590   13.0940   23.8410 O      9007 WAT       0.0649
   9008 WAT         7.1590   13.0940   24.0910 O      9008 WAT       0.1089
   9009 WAT         7.1590   13.0940   24.3410 O      9009 WAT       0.1532
   9010 WAT         7.1590   13.0940   24.5910 O      9010 WAT       0.1664
   9011 WAT         7.1590   13.0940   24.8410 O      9011 WAT       0.1311
   9012 WAT         7.1590   13.0940   25.0910 O      9012 WAT       0.0721
   9013 WAT         7.1590   13.3440   23.5910 O      9013 WAT       0.0505
   9014 WAT         7.1590   13.3440   23.8410 O      9014 WAT       0.0784
   9015 WAT         7.1590   13.3440   24.0910 O      9015 WAT       0.1064
   9016 WAT         7.1590   13.3440   24.3410 O      9016 WAT       0.1249
   9017 WAT         7.1590   13.3440   24.5910 O      9017 WAT       0.1198
   9018 WAT         7.1590   13.3440   24.8410 O      9018 WAT       0.0875
   9019 WAT         7.1590   13.3440   25.0910 O      9019 WAT       0.0460
   9020 WAT         7.1590   13.5940   23.5910 O      9020 WAT       0.0538
   9021 WAT         7.1590   13.5940   23.8410 O      9021 WAT       0.0741
   9022 WAT         7.1590   13.5940   24.0910 O      9022 WAT       0.0867
   9023 WAT         7.1590   13.5940   24.3410 O      9023 WAT       0.0865
   9024 WAT         7.1590   13.5940   24.5910 O      9024 WAT       0.0721
   9025 WAT         7.1590   13.5940   24.8410 O      9025 WAT       0.0477
   9026 WAT         7.1590   13.8440   23.8410 O      9026 WAT       0.0499
   9027 WAT         7.1590   13.8440   24.0910 O      9027 WAT       0.0537
   9028 WAT         7.1590   13.8440   24.3410 O      9028 WAT       0.0483
   9029 WAT         7.1590   14.3440   19.8410 O      9029 WAT       0.0710
   9030 WAT         7.1590   14.3440   20.0910 O      9030 WAT       0.0985
   9031 WAT         7.1590   14.3440   20.3410 O      9031 WAT       0.0985
   9032 WAT         7.1590   14.3440   20.5910 O      9032 WAT       0.0740
   9033 WAT         7.1590   14.3440   20.8410 O      9033 WAT       0.0457
   9034 WAT         7.1590   14.5940   19.5910 O      9034 WAT       0.0504
   9035 WAT         7.1590   14.5940   19.8410 O      9035 WAT       0.1024
   9036 WAT         7.1590   14.5940   20.0910 O      9036 WAT       0.1469
   9037 WAT         7.1590   14.5940   20.3410 O      9037 WAT       0.1517
   9038 WAT         7.1590   14.5940   20.5910 O      9038 WAT       0.1173
   9039 WAT         7.1590   14.5940   20.8410 O      9039 WAT       0.0735
   9040 WAT         7.1590   14.5940   25.0910 O      9040 WAT       0.0463
   9041 WAT         7.1590   14.5940   25.3410 O      9041 WAT       0.0713
   9042 WAT         7.1590   14.5940   25.5910 O      9042 WAT       0.0749
   9043 WAT         7.1590   14.5940   25.8410 O      9043 WAT       0.0532
   9044 WAT         7.1590   14.8440   11.0910 O      9044 WAT       0.0453
   9045 WAT         7.1590   14.8440   15.0910 O      9045 WAT       0.0476
   9046 WAT         7.1590   14.8440   15.3410 O      9046 WAT       0.0518
   9047 WAT         7.1590   14.8440   15.5910 O      9047 WAT       0.0487
   9048 WAT         7.1590   14.8440   19.5910 O      9048 WAT       0.0493
   9049 WAT         7.1590   14.8440   19.8410 O      9049 WAT       0.1028
   9050 WAT         7.1590   14.8440   20.0910 O      9050 WAT       0.1516
   9051 WAT         7.1590   14.8440   20.3410 O      9051 WAT       0.1610
   9052 WAT         7.1590   14.8440   20.5910 O      9052 WAT       0.1278
   9053 WAT         7.1590   14.8440   20.8410 O      9053 WAT       0.0809
   9054 WAT         7.1590   14.8440   25.0910 O      9054 WAT       0.0678
   9055 WAT         7.1590   14.8440   25.3410 O      9055 WAT       0.1188
   9056 WAT         7.1590   14.8440   25.5910 O      9056 WAT       0.1407
   9057 WAT         7.1590   14.8440   25.8410 O      9057 WAT       0.1119
   9058 WAT         7.1590   14.8440   26.0910 O      9058 WAT       0.0590
   9059 WAT         7.1590   15.0940   10.5910 O      9059 WAT       0.0476
   9060 WAT         7.1590   15.0940   10.8410 O      9060 WAT       0.0499
   9061 WAT         7.1590   15.0940   11.0910 O      9061 WAT       0.0485
   9062 WAT         7.1590   15.0940   14.5910 O      9062 WAT       0.0493
   9063 WAT         7.1590   15.0940   14.8410 O      9063 WAT       0.0585
   9064 WAT         7.1590   15.0940   15.0910 O      9064 WAT       0.0629
   9065 WAT         7.1590   15.0940   15.3410 O      9065 WAT       0.0592
   9066 WAT         7.1590   15.0940   15.5910 O      9066 WAT       0.0485
   9067 WAT         7.1590   15.0940   19.8410 O      9067 WAT       0.0738
   9068 WAT         7.1590   15.0940   20.0910 O      9068 WAT       0.1111
   9069 WAT         7.1590   15.0940   20.3410 O      9069 WAT       0.1208
   9070 WAT         7.1590   15.0940   20.5910 O      9070 WAT       0.0979
   9071 WAT         7.1590   15.0940   20.8410 O      9071 WAT       0.0623
   9072 WAT         7.1590   15.0940   25.0910 O      9072 WAT       0.0869
   9073 WAT         7.1590   15.0940   25.3410 O      9073 WAT       0.1723
   9074 WAT         7.1590   15.0940   25.5910 O      9074 WAT       0.2271
   9075 WAT         7.1590   15.0940   25.8410 O      9075 WAT       0.1981
   9076 WAT         7.1590   15.0940   26.0910 O      9076 WAT       0.1136
   9077 WAT         7.1590   15.3440   10.3410 O      9077 WAT       0.0493
   9078 WAT         7.1590   15.3440   10.5910 O      9078 WAT       0.0519
   9079 WAT         7.1590   15.3440   10.8410 O      9079 WAT       0.0505
   9080 WAT         7.1590   15.3440   11.0910 O      9080 WAT       0.0456
   9081 WAT         7.1590   15.3440   14.0910 O      9081 WAT       0.0548
   9082 WAT         7.1590   15.3440   14.3410 O      9082 WAT       0.0628
   9083 WAT         7.1590   15.3440   14.5910 O      9083 WAT       0.0691
   9084 WAT         7.1590   15.3440   14.8410 O      9084 WAT       0.0718
   9085 WAT         7.1590   15.3440   15.0910 O      9085 WAT       0.0676
   9086 WAT         7.1590   15.3440   15.3410 O      9086 WAT       0.0556
   9087 WAT         7.1590   15.3440   17.5910 O      9087 WAT       0.0501
   9088 WAT         7.1590   15.3440   17.8410 O      9088 WAT       0.0500
   9089 WAT         7.1590   15.3440   20.0910 O      9089 WAT       0.0606
   9090 WAT         7.1590   15.3440   20.3410 O      9090 WAT       0.0668
   9091 WAT         7.1590   15.3440   20.5910 O      9091 WAT       0.0548
   9092 WAT         7.1590   15.3440   25.0910 O      9092 WAT       0.1013
   9093 WAT         7.1590   15.3440   25.3410 O      9093 WAT       0.2211
   9094 WAT         7.1590   15.3440   25.5910 O      9094 WAT       0.3152
   9095 WAT         7.1590   15.3440   25.8410 O      9095 WAT       0.2938
   9096 WAT         7.1590   15.3440   26.0910 O      9096 WAT       0.1787
   9097 WAT         7.1590   15.3440   26.3410 O      9097 WAT       0.0703
   9098 WAT         7.1590   15.5940   10.0910 O      9098 WAT       0.0490
   9099 WAT         7.1590   15.5940   10.3410 O      9099 WAT       0.0517
   9100 WAT         7.1590   15.5940   10.5910 O      9100 WAT       0.0506
   9101 WAT         7.1590   15.5940   10.8410 O      9101 WAT       0.0453
   9102 WAT         7.1590   15.5940   13.5910 O      9102 WAT       0.0618
   9103 WAT         7.1590   15.5940   13.8410 O      9103 WAT       0.0730
   9104 WAT         7.1590   15.5940   14.0910 O      9104 WAT       0.0764
   9105 WAT         7.1590   15.5940   14.3410 O      9105 WAT       0.0745
   9106 WAT         7.1590   15.5940   14.5910 O      9106 WAT       0.0706
   9107 WAT         7.1590   15.5940   14.8410 O      9107 WAT       0.0642
   9108 WAT         7.1590   15.5940   15.0910 O      9108 WAT       0.0535
   9109 WAT         7.1590   15.5940   17.3410 O      9109 WAT       0.0756
   9110 WAT         7.1590   15.5940   17.5910 O      9110 WAT       0.1021
   9111 WAT         7.1590   15.5940   17.8410 O      9111 WAT       0.1040
   9112 WAT         7.1590   15.5940   18.0910 O      9112 WAT       0.0824
   9113 WAT         7.1590   15.5940   18.3410 O      9113 WAT       0.0529
   9114 WAT         7.1590   15.5940   25.0910 O      9114 WAT       0.1071
   9115 WAT         7.1590   15.5940   25.3410 O      9115 WAT       0.2477
   9116 WAT         7.1590   15.5940   25.5910 O      9116 WAT       0.3709
   9117 WAT         7.1590   15.5940   25.8410 O      9117 WAT       0.3609
   9118 WAT         7.1590   15.5940   26.0910 O      9118 WAT       0.2279
   9119 WAT         7.1590   15.5940   26.3410 O      9119 WAT       0.0931
   9120 WAT         7.1590   15.8440    9.8410 O      9120 WAT       0.0476
   9121 WAT         7.1590   15.8440   10.0910 O      9121 WAT       0.0500
   9122 WAT         7.1590   15.8440   10.3410 O      9122 WAT       0.0489
   9123 WAT         7.1590   15.8440   13.0910 O      9123 WAT       0.0493
   9124 WAT         7.1590   15.8440   13.3410 O      9124 WAT       0.0709
   9125 WAT         7.1590   15.8440   13.5910 O      9125 WAT       0.0848
   9126 WAT         7.1590   15.8440   13.8410 O      9126 WAT       0.0858
   9127 WAT         7.1590   15.8440   14.0910 O      9127 WAT       0.0758
   9128 WAT         7.1590   15.8440   14.3410 O      9128 WAT       0.0621
   9129 WAT         7.1590   15.8440   14.5910 O      9129 WAT       0.0499
   9130 WAT         7.1590   15.8440   17.0910 O      9130 WAT       0.0531
   9131 WAT         7.1590   15.8440   17.3410 O      9131 WAT       0.0967
   9132 WAT         7.1590   15.8440   17.5910 O      9132 WAT       0.1326
   9133 WAT         7.1590   15.8440   17.8410 O      9133 WAT       0.1384
   9134 WAT         7.1590   15.8440   18.0910 O      9134 WAT       0.1132
   9135 WAT         7.1590   15.8440   18.3410 O      9135 WAT       0.0756
   9136 WAT         7.1590   15.8440   25.0910 O      9136 WAT       0.0999
   9137 WAT         7.1590   15.8440   25.3410 O      9137 WAT       0.2376
   9138 WAT         7.1590   15.8440   25.5910 O      9138 WAT       0.3648
   9139 WAT         7.1590   15.8440   25.8410 O      9139 WAT       0.3627
   9140 WAT         7.1590   15.8440   26.0910 O      9140 WAT       0.2332
   9141 WAT         7.1590   15.8440   26.3410 O      9141 WAT       0.0965
   9142 WAT         7.1590   16.0940    9.5910 O      9142 WAT       0.0452
   9143 WAT         7.1590   16.0940    9.8410 O      9143 WAT       0.0477
   9144 WAT         7.1590   16.0940   10.0910 O      9144 WAT       0.0470
   9145 WAT         7.1590   16.0940   12.8410 O      9145 WAT       0.0456
   9146 WAT         7.1590   16.0940   13.0910 O      9146 WAT       0.0685
   9147 WAT         7.1590   16.0940   13.3410 O      9147 WAT       0.0837
   9148 WAT         7.1590   16.0940   13.5910 O      9148 WAT       0.0844
   9149 WAT         7.1590   16.0940   13.8410 O      9149 WAT       0.0717
   9150 WAT         7.1590   16.0940   14.0910 O      9150 WAT       0.0528
   9151 WAT         7.1590   16.0940   17.3410 O      9151 WAT       0.0781
   9152 WAT         7.1590   16.0940   17.5910 O      9152 WAT       0.1091
   9153 WAT         7.1590   16.0940   17.8410 O      9153 WAT       0.1170
   9154 WAT         7.1590   16.0940   18.0910 O      9154 WAT       0.0992
   9155 WAT         7.1590   16.0940   18.3410 O      9155 WAT       0.0694
   9156 WAT         7.1590   16.0940   25.0910 O      9156 WAT       0.0797
   9157 WAT         7.1590   16.0940   25.3410 O      9157 WAT       0.1907
   9158 WAT         7.1590   16.0940   25.5910 O      9158 WAT       0.2939
   9159 WAT         7.1590   16.0940   25.8410 O      9159 WAT       0.2926
   9160 WAT         7.1590   16.0940   26.0910 O      9160 WAT       0.1877
   9161 WAT         7.1590   16.0940   26.3410 O      9161 WAT       0.0771
   9162 WAT         7.1590   16.3440    9.8410 O      9162 WAT       0.0450
   9163 WAT         7.1590   16.3440   12.8410 O      9163 WAT       0.0561
   9164 WAT         7.1590   16.3440   13.0910 O      9164 WAT       0.0715
   9165 WAT         7.1590   16.3440   13.3410 O      9165 WAT       0.0728
   9166 WAT         7.1590   16.3440   13.5910 O      9166 WAT       0.0606
   9167 WAT         7.1590   16.3440   17.5910 O      9167 WAT       0.0563
   9168 WAT         7.1590   16.3440   17.8410 O      9168 WAT       0.0623
   9169 WAT         7.1590   16.3440   18.0910 O      9169 WAT       0.0551
   9170 WAT         7.1590   16.3440   25.0910 O      9170 WAT       0.0520
   9171 WAT         7.1590   16.3440   25.3410 O      9171 WAT       0.1230
   9172 WAT         7.1590   16.3440   25.5910 O      9172 WAT       0.1870
   9173 WAT         7.1590   16.3440   25.8410 O      9173 WAT       0.1832
   9174 WAT         7.1590   16.3440   26.0910 O      9174 WAT       0.1153
   9175 WAT         7.1590   16.3440   26.3410 O      9175 WAT       0.0461
   9176 WAT         7.1590   16.5940   12.8410 O      9176 WAT       0.0502
   9177 WAT         7.1590   16.5940   13.0910 O      9177 WAT       0.0542
   9178 WAT         7.1590   16.5940   13.3410 O      9178 WAT       0.0458
   9179 WAT         7.1590   16.5940   25.3410 O      9179 WAT       0.0603
   9180 WAT         7.1590   16.5940   25.5910 O      9180 WAT       0.0894
   9181 WAT         7.1590   16.5940   25.8410 O      9181 WAT       0.0851
   9182 WAT         7.1590   16.5940   26.0910 O      9182 WAT       0.0518
   9183 WAT         7.1590   18.8440    8.5910 O      9183 WAT       0.0488
   9184 WAT         7.1590   18.8440    8.8410 O      9184 WAT       0.0492
   9185 WAT         7.1590   19.0940    8.3410 O      9185 WAT       0.0457
   9186 WAT         7.1590   19.0940    8.5910 O      9186 WAT       0.0529
   9187 WAT         7.1590   19.0940    8.8410 O      9187 WAT       0.0564
   9188 WAT         7.1590   19.0940    9.0910 O      9188 WAT       0.0532
   9189 WAT         7.1590   19.3440    8.3410 O      9189 WAT       0.0453
   9190 WAT         7.1590   19.3440    8.5910 O      9190 WAT       0.0552
   9191 WAT         7.1590   19.3440    8.8410 O      9191 WAT       0.0623
   9192 WAT         7.1590   19.3440    9.0910 O      9192 WAT       0.0623
   9193 WAT         7.1590   19.3440    9.3410 O      9193 WAT       0.0524
   9194 WAT         7.1590   19.5940    8.5910 O      9194 WAT       0.0551
   9195 WAT         7.1590   19.5940    8.8410 O      9195 WAT       0.0650
   9196 WAT         7.1590   19.5940    9.0910 O      9196 WAT       0.0684
   9197 WAT         7.1590   19.5940    9.3410 O      9197 WAT       0.0607
   9198 WAT         7.1590   19.8440    8.5910 O      9198 WAT       0.0524
   9199 WAT         7.1590   19.8440    8.8410 O      9199 WAT       0.0632
   9200 WAT         7.1590   19.8440    9.0910 O      9200 WAT       0.0687
   9201 WAT         7.1590   19.8440    9.3410 O      9201 WAT       0.0636
   9202 WAT         7.1590   19.8440    9.5910 O      9202 WAT       0.0476
   9203 WAT         7.1590   20.0940    8.5910 O      9203 WAT       0.0469
   9204 WAT         7.1590   20.0940    8.8410 O      9204 WAT       0.0566
   9205 WAT         7.1590   20.0940    9.0910 O      9205 WAT       0.0625
   9206 WAT         7.1590   20.0940    9.3410 O      9206 WAT       0.0595
   9207 WAT         7.1590   20.0940    9.5910 O      9207 WAT       0.0463
   9208 WAT         7.1590   20.3440    8.8410 O      9208 WAT       0.0478
   9209 WAT         7.1590   20.3440    9.0910 O      9209 WAT       0.0527
   9210 WAT         7.1590   20.3440    9.3410 O      9210 WAT       0.0509
   9211 WAT         7.1590   21.0940    8.8410 O      9211 WAT       0.0472
   9212 WAT         7.1590   21.0940    9.0910 O      9212 WAT       0.0512
   9213 WAT         7.1590   21.0940    9.3410 O      9213 WAT       0.0479
   9214 WAT         7.1590   21.3440    8.5910 O      9214 WAT       0.0457
   9215 WAT         7.1590   21.3440    8.8410 O      9215 WAT       0.0550
   9216 WAT         7.1590   21.3440    9.0910 O      9216 WAT       0.0606
   9217 WAT         7.1590   21.3440    9.3410 O      9217 WAT       0.0570
   9218 WAT         7.1590   21.3440    9.5910 O      9218 WAT       0.0459
   9219 WAT         7.1590   21.5940    6.3410 O      9219 WAT       0.0467
   9220 WAT         7.1590   21.5940    6.5910 O      9220 WAT       0.0489
   9221 WAT         7.1590   21.5940    6.8410 O      9221 WAT       0.0488
   9222 WAT         7.1590   21.5940    7.0910 O      9222 WAT       0.0469
   9223 WAT         7.1590   21.5940    8.8410 O      9223 WAT       0.0561
   9224 WAT         7.1590   21.5940    9.0910 O      9224 WAT       0.0640
   9225 WAT         7.1590   21.5940    9.3410 O      9225 WAT       0.0623
   9226 WAT         7.1590   21.5940    9.5910 O      9226 WAT       0.0528
   9227 WAT         7.1590   21.8440    6.3410 O      9227 WAT       0.0467
   9228 WAT         7.1590   21.8440    6.5910 O      9228 WAT       0.0469
   9229 WAT         7.1590   21.8440    8.8410 O      9229 WAT       0.0480
   9230 WAT         7.1590   21.8440    9.0910 O      9230 WAT       0.0579
   9231 WAT         7.1590   21.8440    9.3410 O      9231 WAT       0.0603
   9232 WAT         7.1590   21.8440    9.5910 O      9232 WAT       0.0555
   9233 WAT         7.1590   21.8440    9.8410 O      9233 WAT       0.0485
   9234 WAT         7.1590   22.0940    9.0910 O      9234 WAT       0.0459
   9235 WAT         7.1590   22.0940    9.3410 O      9235 WAT       0.0521
   9236 WAT         7.1590   22.0940    9.5910 O      9236 WAT       0.0528
   9237 WAT         7.1590   22.0940    9.8410 O      9237 WAT       0.0507
   9238 WAT         7.1590   22.0940   10.0910 O      9238 WAT       0.0490
   9239 WAT         7.1590   22.0940   10.3410 O      9239 WAT       0.0483
   9240 WAT         7.1590   22.0940   10.5910 O      9240 WAT       0.0463
   9241 WAT         7.1590   22.3440    9.5910 O      9241 WAT       0.0464
   9242 WAT         7.1590   22.3440    9.8410 O      9242 WAT       0.0487
   9243 WAT         7.1590   22.3440   10.0910 O      9243 WAT       0.0506
   9244 WAT         7.1590   22.3440   10.3410 O      9244 WAT       0.0523
   9245 WAT         7.1590   22.3440   10.5910 O      9245 WAT       0.0513
   9246 WAT         7.1590   22.3440   10.8410 O      9246 WAT       0.0460
   9247 WAT         7.1590   22.5940   10.0910 O      9247 WAT       0.0473
   9248 WAT         7.1590   22.5940   10.3410 O      9248 WAT       0.0498
   9249 WAT         7.1590   22.5940   10.5910 O      9249 WAT       0.0490
   9250 WAT         7.1590   23.5940    7.5910 O      9250 WAT       0.0491
   9251 WAT         7.1590   23.5940    7.8410 O      9251 WAT       0.0575
   9252 WAT         7.1590   23.5940    8.0910 O      9252 WAT       0.0624
   9253 WAT         7.1590   23.5940    8.3410 O      9253 WAT       0.0619
   9254 WAT         7.1590   23.5940    8.5910 O      9254 WAT       0.0548
   9255 WAT         7.1590   23.5940   17.8410 O      9255 WAT       0.0506
   9256 WAT         7.1590   23.5940   18.0910 O      9256 WAT       0.0932
   9257 WAT         7.1590   23.5940   18.3410 O      9257 WAT       0.1082
   9258 WAT         7.1590   23.5940   18.5910 O      9258 WAT       0.0811
   9259 WAT         7.1590   23.8440    4.0910 O      9259 WAT       0.0485
   9260 WAT         7.1590   23.8440    4.3410 O      9260 WAT       0.0556
   9261 WAT         7.1590   23.8440    4.5910 O      9261 WAT       0.0573
   9262 WAT         7.1590   23.8440    4.8410 O      9262 WAT       0.0522
   9263 WAT         7.1590   23.8440    7.3410 O      9263 WAT       0.0576
   9264 WAT         7.1590   23.8440    7.5910 O      9264 WAT       0.0730
   9265 WAT         7.1590   23.8440    7.8410 O      9265 WAT       0.0858
   9266 WAT         7.1590   23.8440    8.0910 O      9266 WAT       0.0941
   9267 WAT         7.1590   23.8440    8.3410 O      9267 WAT       0.0935
   9268 WAT         7.1590   23.8440    8.5910 O      9268 WAT       0.0807
   9269 WAT         7.1590   23.8440    8.8410 O      9269 WAT       0.0599
   9270 WAT         7.1590   23.8440   17.5910 O      9270 WAT       0.0488
   9271 WAT         7.1590   23.8440   17.8410 O      9271 WAT       0.1382
   9272 WAT         7.1590   23.8440   18.0910 O      9272 WAT       0.2428
   9273 WAT         7.1590   23.8440   18.3410 O      9273 WAT       0.2722
   9274 WAT         7.1590   23.8440   18.5910 O      9274 WAT       0.1964
   9275 WAT         7.1590   23.8440   18.8410 O      9275 WAT       0.0915
   9276 WAT         7.1590   24.0940    4.0910 O      9276 WAT       0.0572
   9277 WAT         7.1590   24.0940    4.3410 O      9277 WAT       0.0673
   9278 WAT         7.1590   24.0940    4.5910 O      9278 WAT       0.0705
   9279 WAT         7.1590   24.0940    4.8410 O      9279 WAT       0.0645
   9280 WAT         7.1590   24.0940    5.0910 O      9280 WAT       0.0503
   9281 WAT         7.1590   24.0940    7.0910 O      9281 WAT       0.0467
   9282 WAT         7.1590   24.0940    7.3410 O      9282 WAT       0.0646
   9283 WAT         7.1590   24.0940    7.5910 O      9283 WAT       0.0817
   9284 WAT         7.1590   24.0940    7.8410 O      9284 WAT       0.0970
   9285 WAT         7.1590   24.0940    8.0910 O      9285 WAT       0.1084
   9286 WAT         7.1590   24.0940    8.3410 O      9286 WAT       0.1094
   9287 WAT         7.1590   24.0940    8.5910 O      9287 WAT       0.0943
   9288 WAT         7.1590   24.0940    8.8410 O      9288 WAT       0.0676
   9289 WAT         7.1590   24.0940   17.5910 O      9289 WAT       0.0851
   9290 WAT         7.1590   24.0940   17.8410 O      9290 WAT       0.2332
   9291 WAT         7.1590   24.0940   18.0910 O      9291 WAT       0.4007
   9292 WAT         7.1590   24.0940   18.3410 O      9292 WAT       0.4368
   9293 WAT         7.1590   24.0940   18.5910 O      9293 WAT       0.3038
   9294 WAT         7.1590   24.0940   18.8410 O      9294 WAT       0.1356
   9295 WAT         7.1590   24.3440    4.0910 O      9295 WAT       0.0589
   9296 WAT         7.1590   24.3440    4.3410 O      9296 WAT       0.0712
   9297 WAT         7.1590   24.3440    4.5910 O      9297 WAT       0.0759
   9298 WAT         7.1590   24.3440    4.8410 O      9298 WAT       0.0699
   9299 WAT         7.1590   24.3440    5.0910 O      9299 WAT       0.0541
   9300 WAT         7.1590   24.3440    7.3410 O      9300 WAT       0.0518
   9301 WAT         7.1590   24.3440    7.5910 O      9301 WAT       0.0658
   9302 WAT         7.1590   24.3440    7.8410 O      9302 WAT       0.0798
   9303 WAT         7.1590   24.3440    8.0910 O      9303 WAT       0.0919
   9304 WAT         7.1590   24.3440    8.3410 O      9304 WAT       0.0952
   9305 WAT         7.1590   24.3440    8.5910 O      9305 WAT       0.0830
   9306 WAT         7.1590   24.3440    8.8410 O      9306 WAT       0.0588
   9307 WAT         7.1590   24.3440   17.5910 O      9307 WAT       0.0914
   9308 WAT         7.1590   24.3440   17.8410 O      9308 WAT       0.2475
   9309 WAT         7.1590   24.3440   18.0910 O      9309 WAT       0.4181
   9310 WAT         7.1590   24.3440   18.3410 O      9310 WAT       0.4451
   9311 WAT         7.1590   24.3440   18.5910 O      9311 WAT       0.2999
   9312 WAT         7.1590   24.3440   18.8410 O      9312 WAT       0.1285
   9313 WAT         7.1590   24.5940    4.0910 O      9313 WAT       0.0528
   9314 WAT         7.1590   24.5940    4.3410 O      9314 WAT       0.0648
   9315 WAT         7.1590   24.5940    4.5910 O      9315 WAT       0.0695
   9316 WAT         7.1590   24.5940    4.8410 O      9316 WAT       0.0635
   9317 WAT         7.1590   24.5940    5.0910 O      9317 WAT       0.0481
   9318 WAT         7.1590   24.5940    7.8410 O      9318 WAT       0.0471
   9319 WAT         7.1590   24.5940    8.0910 O      9319 WAT       0.0565
   9320 WAT         7.1590   24.5940    8.3410 O      9320 WAT       0.0606
   9321 WAT         7.1590   24.5940    8.5910 O      9321 WAT       0.0539
   9322 WAT         7.1590   24.5940   17.5910 O      9322 WAT       0.0607
   9323 WAT         7.1590   24.5940   17.8410 O      9323 WAT       0.1643
   9324 WAT         7.1590   24.5940   18.0910 O      9324 WAT       0.2740
   9325 WAT         7.1590   24.5940   18.3410 O      9325 WAT       0.2860
   9326 WAT         7.1590   24.5940   18.5910 O      9326 WAT       0.1876
   9327 WAT         7.1590   24.5940   18.8410 O      9327 WAT       0.0770
   9328 WAT         7.1590   24.8440    4.3410 O      9328 WAT       0.0517
   9329 WAT         7.1590   24.8440    4.5910 O      9329 WAT       0.0540
   9330 WAT         7.1590   24.8440    4.8410 O      9330 WAT       0.0476
   9331 WAT         7.1590   24.8440   17.8410 O      9331 WAT       0.0671
   9332 WAT         7.1590   24.8440   18.0910 O      9332 WAT       0.1116
   9333 WAT         7.1590   24.8440   18.3410 O      9333 WAT       0.1146
   9334 WAT         7.1590   24.8440   18.5910 O      9334 WAT       0.0729
   9335 WAT         7.1590   25.8440    3.3410 O      9335 WAT       0.0543
   9336 WAT         7.1590   25.8440    3.5910 O      9336 WAT       0.0615
   9337 WAT         7.1590   25.8440    3.8410 O      9337 WAT       0.0562
   9338 WAT         7.1590   26.0940    2.8410 O      9338 WAT       0.0589
   9339 WAT         7.1590   26.0940    3.0910 O      9339 WAT       0.0920
   9340 WAT         7.1590   26.0940    3.3410 O      9340 WAT       0.1137
   9341 WAT         7.1590   26.0940    3.5910 O      9341 WAT       0.1110
   9342 WAT         7.1590   26.0940    3.8410 O      9342 WAT       0.0859
   9343 WAT         7.1590   26.0940    4.0910 O      9343 WAT       0.0533
   9344 WAT         7.1590   26.3440    2.5910 O      9344 WAT       0.0643
   9345 WAT         7.1590   26.3440    2.8410 O      9345 WAT       0.1160
   9346 WAT         7.1590   26.3440    3.0910 O      9346 WAT       0.1642
   9347 WAT         7.1590   26.3440    3.3410 O      9347 WAT       0.1808
   9348 WAT         7.1590   26.3440    3.5910 O      9348 WAT       0.1547
   9349 WAT         7.1590   26.3440    3.8410 O      9349 WAT       0.1036
   9350 WAT         7.1590   26.3440    4.0910 O      9350 WAT       0.0549
   9351 WAT         7.1590   26.5940    2.5910 O      9351 WAT       0.0955
   9352 WAT         7.1590   26.5940    2.8410 O      9352 WAT       0.1601
   9353 WAT         7.1590   26.5940    3.0910 O      9353 WAT       0.2071
   9354 WAT         7.1590   26.5940    3.3410 O      9354 WAT       0.2049
   9355 WAT         7.1590   26.5940    3.5910 O      9355 WAT       0.1553
   9356 WAT         7.1590   26.5940    3.8410 O      9356 WAT       0.0909
   9357 WAT         7.1590   26.8440    2.5910 O      9357 WAT       0.0956
   9358 WAT         7.1590   26.8440    2.8410 O      9358 WAT       0.1497
   9359 WAT         7.1590   26.8440    3.0910 O      9359 WAT       0.1780
   9360 WAT         7.1590   26.8440    3.3410 O      9360 WAT       0.1596
   9361 WAT         7.1590   26.8440    3.5910 O      9361 WAT       0.1079
   9362 WAT         7.1590   26.8440    3.8410 O      9362 WAT       0.0555
   9363 WAT         7.1590   27.0940    2.5910 O      9363 WAT       0.0629
   9364 WAT         7.1590   27.0940    2.8410 O      9364 WAT       0.0923
   9365 WAT         7.1590   27.0940    3.0910 O      9365 WAT       0.1015
   9366 WAT         7.1590   27.0940    3.3410 O      9366 WAT       0.0830
   9367 WAT         7.1590   27.0940    3.5910 O      9367 WAT       0.0503
   9368 WAT         7.4090    9.0940   19.8410 O      9368 WAT       0.0464
   9369 WAT         7.4090    9.0940   20.0910 O      9369 WAT       0.0502
   9370 WAT         7.4090    9.0940   20.3410 O      9370 WAT       0.0513
   9371 WAT         7.4090    9.0940   20.5910 O      9371 WAT       0.0510
   9372 WAT         7.4090    9.0940   20.8410 O      9372 WAT       0.0494
   9373 WAT         7.4090    9.0940   21.0910 O      9373 WAT       0.0454
   9374 WAT         7.4090    9.3440   19.5910 O      9374 WAT       0.0553
   9375 WAT         7.4090    9.3440   19.8410 O      9375 WAT       0.0631
   9376 WAT         7.4090    9.3440   20.0910 O      9376 WAT       0.0652
   9377 WAT         7.4090    9.3440   20.3410 O      9377 WAT       0.0623
   9378 WAT         7.4090    9.3440   20.5910 O      9378 WAT       0.0575
   9379 WAT         7.4090    9.3440   20.8410 O      9379 WAT       0.0518
   9380 WAT         7.4090    9.5940   19.3410 O      9380 WAT       0.0556
   9381 WAT         7.4090    9.5940   19.5910 O      9381 WAT       0.0685
   9382 WAT         7.4090    9.5940   19.8410 O      9382 WAT       0.0749
   9383 WAT         7.4090    9.5940   20.0910 O      9383 WAT       0.0725
   9384 WAT         7.4090    9.5940   20.3410 O      9384 WAT       0.0640
   9385 WAT         7.4090    9.5940   20.5910 O      9385 WAT       0.0539
   9386 WAT         7.4090    9.8440   19.0910 O      9386 WAT       0.0473
   9387 WAT         7.4090    9.8440   19.3410 O      9387 WAT       0.0620
   9388 WAT         7.4090    9.8440   19.5910 O      9388 WAT       0.0727
   9389 WAT         7.4090    9.8440   19.8410 O      9389 WAT       0.0743
   9390 WAT         7.4090    9.8440   20.0910 O      9390 WAT       0.0667
   9391 WAT         7.4090    9.8440   20.3410 O      9391 WAT       0.0540
   9392 WAT         7.4090   10.0940   19.0910 O      9392 WAT       0.0490
   9393 WAT         7.4090   10.0940   19.3410 O      9393 WAT       0.0607
   9394 WAT         7.4090   10.0940   19.5910 O      9394 WAT       0.0655
   9395 WAT         7.4090   10.0940   19.8410 O      9395 WAT       0.0614
   9396 WAT         7.4090   10.0940   20.0910 O      9396 WAT       0.0504
   9397 WAT         7.4090   10.3440   19.0910 O      9397 WAT       0.0467
   9398 WAT         7.4090   10.3440   19.3410 O      9398 WAT       0.0527
   9399 WAT         7.4090   10.3440   19.5910 O      9399 WAT       0.0510
   9400 WAT         7.4090   11.5940   24.3410 O      9400 WAT       0.0561
   9401 WAT         7.4090   11.5940   24.5910 O      9401 WAT       0.0634
   9402 WAT         7.4090   11.5940   24.8410 O      9402 WAT       0.0490
   9403 WAT         7.4090   11.8440   18.3410 O      9403 WAT       0.0473
   9404 WAT         7.4090   11.8440   18.5910 O      9404 WAT       0.0487
   9405 WAT         7.4090   11.8440   24.0910 O      9405 WAT       0.0491
   9406 WAT         7.4090   11.8440   24.3410 O      9406 WAT       0.0888
   9407 WAT         7.4090   11.8440   24.5910 O      9407 WAT       0.1088
   9408 WAT         7.4090   11.8440   24.8410 O      9408 WAT       0.0902
   9409 WAT         7.4090   11.8440   25.0910 O      9409 WAT       0.0505
   9410 WAT         7.4090   12.0940   18.0910 O      9410 WAT       0.0453
   9411 WAT         7.4090   12.0940   18.3410 O      9411 WAT       0.0518
   9412 WAT         7.4090   12.0940   18.5910 O      9412 WAT       0.0514
   9413 WAT         7.4090   12.0940   24.0910 O      9413 WAT       0.0616
   9414 WAT         7.4090   12.0940   24.3410 O      9414 WAT       0.1180
   9415 WAT         7.4090   12.0940   24.5910 O      9415 WAT       0.1522
   9416 WAT         7.4090   12.0940   24.8410 O      9416 WAT       0.1324
   9417 WAT         7.4090   12.0940   25.0910 O      9417 WAT       0.0776
   9418 WAT         7.4090   12.3440   18.3410 O      9418 WAT       0.0489
   9419 WAT         7.4090   12.3440   18.5910 O      9419 WAT       0.0466
   9420 WAT         7.4090   12.3440   24.0910 O      9420 WAT       0.0730
   9421 WAT         7.4090   12.3440   24.3410 O      9421 WAT       0.1425
   9422 WAT         7.4090   12.3440   24.5910 O      9422 WAT       0.1881
   9423 WAT         7.4090   12.3440   24.8410 O      9423 WAT       0.1675
   9424 WAT         7.4090   12.3440   25.0910 O      9424 WAT       0.1003
   9425 WAT         7.4090   12.5940   24.0910 O      9425 WAT       0.0860
   9426 WAT         7.4090   12.5940   24.3410 O      9426 WAT       0.1636
   9427 WAT         7.4090   12.5940   24.5910 O      9427 WAT       0.2140
   9428 WAT         7.4090   12.5940   24.8410 O      9428 WAT       0.1903
   9429 WAT         7.4090   12.5940   25.0910 O      9429 WAT       0.1139
   9430 WAT         7.4090   12.5940   25.3410 O      9430 WAT       0.0454
   9431 WAT         7.4090   12.8440   24.0910 O      9431 WAT       0.1003
   9432 WAT         7.4090   12.8440   24.3410 O      9432 WAT       0.1750
   9433 WAT         7.4090   12.8440   24.5910 O      9433 WAT       0.2193
   9434 WAT         7.4090   12.8440   24.8410 O      9434 WAT       0.1904
   9435 WAT         7.4090   12.8440   25.0910 O      9435 WAT       0.1123
   9436 WAT         7.4090   13.0940   23.8410 O      9436 WAT       0.0611
   9437 WAT         7.4090   13.0940   24.0910 O      9437 WAT       0.1127
   9438 WAT         7.4090   13.0940   24.3410 O      9438 WAT       0.1696
   9439 WAT         7.4090   13.0940   24.5910 O      9439 WAT       0.1947
   9440 WAT         7.4090   13.0940   24.8410 O      9440 WAT       0.1610
   9441 WAT         7.4090   13.0940   25.0910 O      9441 WAT       0.0923
   9442 WAT         7.4090   13.3440   23.8410 O      9442 WAT       0.0753
   9443 WAT         7.4090   13.3440   24.0910 O      9443 WAT       0.1149
   9444 WAT         7.4090   13.3440   24.3410 O      9444 WAT       0.1458
   9445 WAT         7.4090   13.3440   24.5910 O      9445 WAT       0.1476
   9446 WAT         7.4090   13.3440   24.8410 O      9446 WAT       0.1126
   9447 WAT         7.4090   13.3440   25.0910 O      9447 WAT       0.0616
   9448 WAT         7.4090   13.5940   23.8410 O      9448 WAT       0.0707
   9449 WAT         7.4090   13.5940   24.0910 O      9449 WAT       0.0962
   9450 WAT         7.4090   13.5940   24.3410 O      9450 WAT       0.1066
   9451 WAT         7.4090   13.5940   24.5910 O      9451 WAT       0.0950
   9452 WAT         7.4090   13.5940   24.8410 O      9452 WAT       0.0658
   9453 WAT         7.4090   13.8440   23.8410 O      9453 WAT       0.0465
   9454 WAT         7.4090   13.8440   24.0910 O      9454 WAT       0.0599
   9455 WAT         7.4090   13.8440   24.3410 O      9455 WAT       0.0618
   9456 WAT         7.4090   13.8440   24.5910 O      9456 WAT       0.0511
   9457 WAT         7.4090   14.0940   19.8410 O      9457 WAT       0.0721
   9458 WAT         7.4090   14.0940   20.0910 O      9458 WAT       0.0829
   9459 WAT         7.4090   14.0940   20.3410 O      9459 WAT       0.0672
   9460 WAT         7.4090   14.3440   19.5910 O      9460 WAT       0.0826
   9461 WAT         7.4090   14.3440   19.8410 O      9461 WAT       0.1409
   9462 WAT         7.4090   14.3440   20.0910 O      9462 WAT       0.1680
   9463 WAT         7.4090   14.3440   20.3410 O      9463 WAT       0.1413
   9464 WAT         7.4090   14.3440   20.5910 O      9464 WAT       0.0859
   9465 WAT         7.4090   14.3440   25.3410 O      9465 WAT       0.0499
   9466 WAT         7.4090   14.3440   25.5910 O      9466 WAT       0.0480
   9467 WAT         7.4090   14.5940   15.3410 O      9467 WAT       0.0457
   9468 WAT         7.4090   14.5940   15.5910 O      9468 WAT       0.0462
   9469 WAT         7.4090   14.5940   19.5910 O      9469 WAT       0.1066
   9470 WAT         7.4090   14.5940   19.8410 O      9470 WAT       0.1874
   9471 WAT         7.4090   14.5940   20.0910 O      9471 WAT       0.2305
   9472 WAT         7.4090   14.5940   20.3410 O      9472 WAT       0.2004
   9473 WAT         7.4090   14.5940   20.5910 O      9473 WAT       0.1258
   9474 WAT         7.4090   14.5940   20.8410 O      9474 WAT       0.0594
   9475 WAT         7.4090   14.5940   25.0910 O      9475 WAT       0.0598
   9476 WAT         7.4090   14.5940   25.3410 O      9476 WAT       0.0955
   9477 WAT         7.4090   14.5940   25.5910 O      9477 WAT       0.1033
   9478 WAT         7.4090   14.5940   25.8410 O      9478 WAT       0.0751
   9479 WAT         7.4090   14.8440   10.8410 O      9479 WAT       0.0493
   9480 WAT         7.4090   14.8440   11.0910 O      9480 WAT       0.0528
   9481 WAT         7.4090   14.8440   11.3410 O      9481 WAT       0.0523
   9482 WAT         7.4090   14.8440   11.5910 O      9482 WAT       0.0473
   9483 WAT         7.4090   14.8440   14.8410 O      9483 WAT       0.0457
   9484 WAT         7.4090   14.8440   15.0910 O      9484 WAT       0.0556
   9485 WAT         7.4090   14.8440   15.3410 O      9485 WAT       0.0584
   9486 WAT         7.4090   14.8440   15.5910 O      9486 WAT       0.0522
   9487 WAT         7.4090   14.8440   19.5910 O      9487 WAT       0.0960
   9488 WAT         7.4090   14.8440   19.8410 O      9488 WAT       0.1727
   9489 WAT         7.4090   14.8440   20.0910 O      9489 WAT       0.2181
   9490 WAT         7.4090   14.8440   20.3410 O      9490 WAT       0.1952
   9491 WAT         7.4090   14.8440   20.5910 O      9491 WAT       0.1260
   9492 WAT         7.4090   14.8440   20.8410 O      9492 WAT       0.0608
   9493 WAT         7.4090   14.8440   25.0910 O      9493 WAT       0.0843
   9494 WAT         7.4090   14.8440   25.3410 O      9494 WAT       0.1523
   9495 WAT         7.4090   14.8440   25.5910 O      9495 WAT       0.1847
   9496 WAT         7.4090   14.8440   25.8410 O      9496 WAT       0.1491
   9497 WAT         7.4090   14.8440   26.0910 O      9497 WAT       0.0794
   9498 WAT         7.4090   15.0940   10.3410 O      9498 WAT       0.0450
   9499 WAT         7.4090   15.0940   10.5910 O      9499 WAT       0.0520
   9500 WAT         7.4090   15.0940   10.8410 O      9500 WAT       0.0566
   9501 WAT         7.4090   15.0940   11.0910 O      9501 WAT       0.0573
   9502 WAT         7.4090   15.0940   11.3410 O      9502 WAT       0.0533
   9503 WAT         7.4090   15.0940   11.5910 O      9503 WAT       0.0453
   9504 WAT         7.4090   15.0940   14.5910 O      9504 WAT       0.0559
   9505 WAT         7.4090   15.0940   14.8410 O      9505 WAT       0.0684
   9506 WAT         7.4090   15.0940   15.0910 O      9506 WAT       0.0735
   9507 WAT         7.4090   15.0940   15.3410 O      9507 WAT       0.0675
   9508 WAT         7.4090   15.0940   15.5910 O      9508 WAT       0.0528
   9509 WAT         7.4090   15.0940   19.5910 O      9509 WAT       0.0618
   9510 WAT         7.4090   15.0940   19.8410 O      9510 WAT       0.1131
   9511 WAT         7.4090   15.0940   20.0910 O      9511 WAT       0.1458
   9512 WAT         7.4090   15.0940   20.3410 O      9512 WAT       0.1336
   9513 WAT         7.4090   15.0940   20.5910 O      9513 WAT       0.0882
   9514 WAT         7.4090   15.0940   25.0910 O      9514 WAT       0.1027
   9515 WAT         7.4090   15.0940   25.3410 O      9515 WAT       0.2083
   9516 WAT         7.4090   15.0940   25.5910 O      9516 WAT       0.2792
   9517 WAT         7.4090   15.0940   25.8410 O      9517 WAT       0.2459
   9518 WAT         7.4090   15.0940   26.0910 O      9518 WAT       0.1416
   9519 WAT         7.4090   15.0940   26.3410 O      9519 WAT       0.0526
   9520 WAT         7.4090   15.3440   10.3410 O      9520 WAT       0.0509
   9521 WAT         7.4090   15.3440   10.5910 O      9521 WAT       0.0556
   9522 WAT         7.4090   15.3440   10.8410 O      9522 WAT       0.0566
   9523 WAT         7.4090   15.3440   11.0910 O      9523 WAT       0.0534
   9524 WAT         7.4090   15.3440   11.3410 O      9524 WAT       0.0467
   9525 WAT         7.4090   15.3440   14.0910 O      9525 WAT       0.0546
   9526 WAT         7.4090   15.3440   14.3410 O      9526 WAT       0.0668
   9527 WAT         7.4090   15.3440   14.5910 O      9527 WAT       0.0780
   9528 WAT         7.4090   15.3440   14.8410 O      9528 WAT       0.0839
   9529 WAT         7.4090   15.3440   15.0910 O      9529 WAT       0.0796
   9530 WAT         7.4090   15.3440   15.3410 O      9530 WAT       0.0644
   9531 WAT         7.4090   15.3440   17.3410 O      9531 WAT       0.0566
   9532 WAT         7.4090   15.3440   17.5910 O      9532 WAT       0.0697
   9533 WAT         7.4090   15.3440   17.8410 O      9533 WAT       0.0635
   9534 WAT         7.4090   15.3440   19.8410 O      9534 WAT       0.0551
   9535 WAT         7.4090   15.3440   20.0910 O      9535 WAT       0.0718
   9536 WAT         7.4090   15.3440   20.3410 O      9536 WAT       0.0666
   9537 WAT         7.4090   15.3440   25.0910 O      9537 WAT       0.1109
   9538 WAT         7.4090   15.3440   25.3410 O      9538 WAT       0.2466
   9539 WAT         7.4090   15.3440   25.5910 O      9539 WAT       0.3567
   9540 WAT         7.4090   15.3440   25.8410 O      9540 WAT       0.3356
   9541 WAT         7.4090   15.3440   26.0910 O      9541 WAT       0.2051
   9542 WAT         7.4090   15.3440   26.3410 O      9542 WAT       0.0809
   9543 WAT         7.4090   15.5940   10.0910 O      9543 WAT       0.0474
   9544 WAT         7.4090   15.5940   10.3410 O      9544 WAT       0.0510
   9545 WAT         7.4090   15.5940   10.5910 O      9545 WAT       0.0519
   9546 WAT         7.4090   15.5940   10.8410 O      9546 WAT       0.0488
   9547 WAT         7.4090   15.5940   13.5910 O      9547 WAT       0.0544
   9548 WAT         7.4090   15.5940   13.8410 O      9548 WAT       0.0683
   9549 WAT         7.4090   15.5940   14.0910 O      9549 WAT       0.0768
   9550 WAT         7.4090   15.5940   14.3410 O      9550 WAT       0.0808
   9551 WAT         7.4090   15.5940   14.5910 O      9551 WAT       0.0815
   9552 WAT         7.4090   15.5940   14.8410 O      9552 WAT       0.0769
   9553 WAT         7.4090   15.5940   15.0910 O      9553 WAT       0.0648
   9554 WAT         7.4090   15.5940   15.3410 O      9554 WAT       0.0468
   9555 WAT         7.4090   15.5940   17.0910 O      9555 WAT       0.0670
   9556 WAT         7.4090   15.5940   17.3410 O      9556 WAT       0.1124
   9557 WAT         7.4090   15.5940   17.5910 O      9557 WAT       0.1397
   9558 WAT         7.4090   15.5940   17.8410 O      9558 WAT       0.1292
   9559 WAT         7.4090   15.5940   18.0910 O      9559 WAT       0.0913
   9560 WAT         7.4090   15.5940   18.3410 O      9560 WAT       0.0514
   9561 WAT         7.4090   15.5940   25.0910 O      9561 WAT       0.1061
   9562 WAT         7.4090   15.5940   25.3410 O      9562 WAT       0.2510
   9563 WAT         7.4090   15.5940   25.5910 O      9563 WAT       0.3826
   9564 WAT         7.4090   15.5940   25.8410 O      9564 WAT       0.3772
   9565 WAT         7.4090   15.5940   26.0910 O      9565 WAT       0.2403
   9566 WAT         7.4090   15.5940   26.3410 O      9566 WAT       0.0986
   9567 WAT         7.4090   15.8440   10.0910 O      9567 WAT       0.0451
   9568 WAT         7.4090   15.8440   13.3410 O      9568 WAT       0.0569
   9569 WAT         7.4090   15.8440   13.5910 O      9569 WAT       0.0739
   9570 WAT         7.4090   15.8440   13.8410 O      9570 WAT       0.0813
   9571 WAT         7.4090   15.8440   14.0910 O      9571 WAT       0.0783
   9572 WAT         7.4090   15.8440   14.3410 O      9572 WAT       0.0698
   9573 WAT         7.4090   15.8440   14.5910 O      9573 WAT       0.0602
   9574 WAT         7.4090   15.8440   14.8410 O      9574 WAT       0.0497
   9575 WAT         7.4090   15.8440   17.0910 O      9575 WAT       0.0847
   9576 WAT         7.4090   15.8440   17.3410 O      9576 WAT       0.1422
   9577 WAT         7.4090   15.8440   17.5910 O      9577 WAT       0.1779
   9578 WAT         7.4090   15.8440   17.8410 O      9578 WAT       0.1671
   9579 WAT         7.4090   15.8440   18.0910 O      9579 WAT       0.1209
   9580 WAT         7.4090   15.8440   18.3410 O      9580 WAT       0.0704
   9581 WAT         7.4090   15.8440   25.0910 O      9581 WAT       0.0887
   9582 WAT         7.4090   15.8440   25.3410 O      9582 WAT       0.2179
   9583 WAT         7.4090   15.8440   25.5910 O      9583 WAT       0.3432
   9584 WAT         7.4090   15.8440   25.8410 O      9584 WAT       0.3480
   9585 WAT         7.4090   15.8440   26.0910 O      9585 WAT       0.2272
   9586 WAT         7.4090   15.8440   26.3410 O      9586 WAT       0.0950
   9587 WAT         7.4090   16.0940   13.0910 O      9587 WAT       0.0461
   9588 WAT         7.4090   16.0940   13.3410 O      9588 WAT       0.0636
   9589 WAT         7.4090   16.0940   13.5910 O      9589 WAT       0.0722
   9590 WAT         7.4090   16.0940   13.8410 O      9590 WAT       0.0687
   9591 WAT         7.4090   16.0940   14.0910 O      9591 WAT       0.0564
   9592 WAT         7.4090   16.0940   17.0910 O      9592 WAT       0.0677
   9593 WAT         7.4090   16.0940   17.3410 O      9593 WAT       0.1135
   9594 WAT         7.4090   16.0940   17.5910 O      9594 WAT       0.1430
   9595 WAT         7.4090   16.0940   17.8410 O      9595 WAT       0.1365
   9596 WAT         7.4090   16.0940   18.0910 O      9596 WAT       0.1013
   9597 WAT         7.4090   16.0940   18.3410 O      9597 WAT       0.0608
   9598 WAT         7.4090   16.0940   25.0910 O      9598 WAT       0.0637
   9599 WAT         7.4090   16.0940   25.3410 O      9599 WAT       0.1595
   9600 WAT         7.4090   16.0940   25.5910 O      9600 WAT       0.2546
   9601 WAT         7.4090   16.0940   25.8410 O      9601 WAT       0.2607
   9602 WAT         7.4090   16.0940   26.0910 O      9602 WAT       0.1711
   9603 WAT         7.4090   16.0940   26.3410 O      9603 WAT       0.0714
   9604 WAT         7.4090   16.3440   13.3410 O      9604 WAT       0.0512
   9605 WAT         7.4090   16.3440   13.5910 O      9605 WAT       0.0499
   9606 WAT         7.4090   16.3440   17.3410 O      9606 WAT       0.0566
   9607 WAT         7.4090   16.3440   17.5910 O      9607 WAT       0.0719
   9608 WAT         7.4090   16.3440   17.8410 O      9608 WAT       0.0699
   9609 WAT         7.4090   16.3440   18.0910 O      9609 WAT       0.0531
   9610 WAT         7.4090   16.3440   25.3410 O      9610 WAT       0.0952
   9611 WAT         7.4090   16.3440   25.5910 O      9611 WAT       0.1514
   9612 WAT         7.4090   16.3440   25.8410 O      9612 WAT       0.1539
   9613 WAT         7.4090   16.3440   26.0910 O      9613 WAT       0.0997
   9614 WAT         7.4090   16.5940   25.5910 O      9614 WAT       0.0686
   9615 WAT         7.4090   16.5940   25.8410 O      9615 WAT       0.0683
   9616 WAT         7.4090   18.5940    8.3410 O      9616 WAT       0.0464
   9617 WAT         7.4090   18.5940    8.5910 O      9617 WAT       0.0452
   9618 WAT         7.4090   18.8440    8.3410 O      9618 WAT       0.0497
   9619 WAT         7.4090   18.8440    8.5910 O      9619 WAT       0.0515
   9620 WAT         7.4090   18.8440    8.8410 O      9620 WAT       0.0480
   9621 WAT         7.4090   19.0940    8.3410 O      9621 WAT       0.0514
   9622 WAT         7.4090   19.0940    8.5910 O      9622 WAT       0.0571
   9623 WAT         7.4090   19.0940    8.8410 O      9623 WAT       0.0575
   9624 WAT         7.4090   19.0940    9.0910 O      9624 WAT       0.0501
   9625 WAT         7.4090   19.3440    8.3410 O      9625 WAT       0.0515
   9626 WAT         7.4090   19.3440    8.5910 O      9626 WAT       0.0611
   9627 WAT         7.4090   19.3440    8.8410 O      9627 WAT       0.0662
   9628 WAT         7.4090   19.3440    9.0910 O      9628 WAT       0.0622
   9629 WAT         7.4090   19.3440    9.3410 O      9629 WAT       0.0481
   9630 WAT         7.4090   19.5940    8.3410 O      9630 WAT       0.0508
   9631 WAT         7.4090   19.5940    8.5910 O      9631 WAT       0.0629
   9632 WAT         7.4090   19.5940    8.8410 O      9632 WAT       0.0720
   9633 WAT         7.4090   19.5940    9.0910 O      9633 WAT       0.0719
   9634 WAT         7.4090   19.5940    9.3410 O      9634 WAT       0.0594
   9635 WAT         7.4090   19.8440    8.3410 O      9635 WAT       0.0490
   9636 WAT         7.4090   19.8440    8.5910 O      9636 WAT       0.0619
   9637 WAT         7.4090   19.8440    8.8410 O      9637 WAT       0.0729
   9638 WAT         7.4090   19.8440    9.0910 O      9638 WAT       0.0759
   9639 WAT         7.4090   19.8440    9.3410 O      9639 WAT       0.0659
   9640 WAT         7.4090   19.8440    9.5910 O      9640 WAT       0.0456
   9641 WAT         7.4090   20.0940    8.3410 O      9641 WAT       0.0450
   9642 WAT         7.4090   20.0940    8.5910 O      9642 WAT       0.0566
   9643 WAT         7.4090   20.0940    8.8410 O      9643 WAT       0.0673
   9644 WAT         7.4090   20.0940    9.0910 O      9644 WAT       0.0718
   9645 WAT         7.4090   20.0940    9.3410 O      9645 WAT       0.0649
   9646 WAT         7.4090   20.0940    9.5910 O      9646 WAT       0.0473
   9647 WAT         7.4090   20.3440    8.5910 O      9647 WAT       0.0480
   9648 WAT         7.4090   20.3440    8.8410 O      9648 WAT       0.0566
   9649 WAT         7.4090   20.3440    9.0910 O      9649 WAT       0.0612
   9650 WAT         7.4090   20.3440    9.3410 O      9650 WAT       0.0570
   9651 WAT         7.4090   20.5940    8.8410 O      9651 WAT       0.0458
   9652 WAT         7.4090   20.5940    9.0910 O      9652 WAT       0.0496
   9653 WAT         7.4090   20.5940    9.3410 O      9653 WAT       0.0471
   9654 WAT         7.4090   21.0940    9.0910 O      9654 WAT       0.0456
   9655 WAT         7.4090   21.3440    8.8410 O      9655 WAT       0.0474
   9656 WAT         7.4090   21.3440    9.0910 O      9656 WAT       0.0522
   9657 WAT         7.4090   21.3440    9.3410 O      9657 WAT       0.0495
   9658 WAT         7.4090   21.5940    6.5910 O      9658 WAT       0.0464
   9659 WAT         7.4090   21.5940    6.8410 O      9659 WAT       0.0478
   9660 WAT         7.4090   21.5940    7.0910 O      9660 WAT       0.0470
   9661 WAT         7.4090   21.5940    8.8410 O      9661 WAT       0.0492
   9662 WAT         7.4090   21.5940    9.0910 O      9662 WAT       0.0559
   9663 WAT         7.4090   21.5940    9.3410 O      9663 WAT       0.0545
   9664 WAT         7.4090   21.5940    9.5910 O      9664 WAT       0.0455
   9665 WAT         7.4090   21.8440    6.5910 O      9665 WAT       0.0458
   9666 WAT         7.4090   21.8440    6.8410 O      9666 WAT       0.0454
   9667 WAT         7.4090   21.8440    9.0910 O      9667 WAT       0.0526
   9668 WAT         7.4090   21.8440    9.3410 O      9668 WAT       0.0542
   9669 WAT         7.4090   21.8440    9.5910 O      9669 WAT       0.0486
   9670 WAT         7.4090   22.0940    9.3410 O      9670 WAT       0.0490
   9671 WAT         7.4090   22.0940    9.5910 O      9671 WAT       0.0478
   9672 WAT         7.4090   23.3440   18.3410 O      9672 WAT       0.0526
   9673 WAT         7.4090   23.5940   17.8410 O      9673 WAT       0.0873
   9674 WAT         7.4090   23.5940   18.0910 O      9674 WAT       0.1644
   9675 WAT         7.4090   23.5940   18.3410 O      9675 WAT       0.2002
   9676 WAT         7.4090   23.5940   18.5910 O      9676 WAT       0.1598
   9677 WAT         7.4090   23.5940   18.8410 O      9677 WAT       0.0838
   9678 WAT         7.4090   23.8440    4.0910 O      9678 WAT       0.0472
   9679 WAT         7.4090   23.8440    4.3410 O      9679 WAT       0.0545
   9680 WAT         7.4090   23.8440    4.5910 O      9680 WAT       0.0572
   9681 WAT         7.4090   23.8440    4.8410 O      9681 WAT       0.0537
   9682 WAT         7.4090   23.8440   17.5910 O      9682 WAT       0.0790
   9683 WAT         7.4090   23.8440   17.8410 O      9683 WAT       0.2261
   9684 WAT         7.4090   23.8440   18.0910 O      9684 WAT       0.4101
   9685 WAT         7.4090   23.8440   18.3410 O      9685 WAT       0.4792
   9686 WAT         7.4090   23.8440   18.5910 O      9686 WAT       0.3636
   9687 WAT         7.4090   23.8440   18.8410 O      9687 WAT       0.1809
   9688 WAT         7.4090   23.8440   19.0910 O      9688 WAT       0.0583
   9689 WAT         7.4090   24.0940    4.0910 O      9689 WAT       0.0577
   9690 WAT         7.4090   24.0940    4.3410 O      9690 WAT       0.0695
   9691 WAT         7.4090   24.0940    4.5910 O      9691 WAT       0.0749
   9692 WAT         7.4090   24.0940    4.8410 O      9692 WAT       0.0712
   9693 WAT         7.4090   24.0940    5.0910 O      9693 WAT       0.0579
   9694 WAT         7.4090   24.0940   17.5910 O      9694 WAT       0.1325
   9695 WAT         7.4090   24.0940   17.8410 O      9695 WAT       0.3695
   9696 WAT         7.4090   24.0940   18.0910 O      9696 WAT       0.6528
   9697 WAT         7.4090   24.0940   18.3410 O      9697 WAT       0.7365
   9698 WAT         7.4090   24.0940   18.5910 O      9698 WAT       0.5342
   9699 WAT         7.4090   24.0940   18.8410 O      9699 WAT       0.2515
   9700 WAT         7.4090   24.0940   19.0910 O      9700 WAT       0.0767
   9701 WAT         7.4090   24.3440    4.0910 O      9701 WAT       0.0613
   9702 WAT         7.4090   24.3440    4.3410 O      9702 WAT       0.0771
   9703 WAT         7.4090   24.3440    4.5910 O      9703 WAT       0.0859
   9704 WAT         7.4090   24.3440    4.8410 O      9704 WAT       0.0826
   9705 WAT         7.4090   24.3440    5.0910 O      9705 WAT       0.0669
   9706 WAT         7.4090   24.3440   17.5910 O      9706 WAT       0.1389
   9707 WAT         7.4090   24.3440   17.8410 O      9707 WAT       0.3814
   9708 WAT         7.4090   24.3440   18.0910 O      9708 WAT       0.6590
   9709 WAT         7.4090   24.3440   18.3410 O      9709 WAT       0.7216
   9710 WAT         7.4090   24.3440   18.5910 O      9710 WAT       0.5036
   9711 WAT         7.4090   24.3440   18.8410 O      9711 WAT       0.2257
   9712 WAT         7.4090   24.3440   19.0910 O      9712 WAT       0.0646
   9713 WAT         7.4090   24.5940    4.0910 O      9713 WAT       0.0567
   9714 WAT         7.4090   24.5940    4.3410 O      9714 WAT       0.0739
   9715 WAT         7.4090   24.5940    4.5910 O      9715 WAT       0.0840
   9716 WAT         7.4090   24.5940    4.8410 O      9716 WAT       0.0809
   9717 WAT         7.4090   24.5940    5.0910 O      9717 WAT       0.0645
   9718 WAT         7.4090   24.5940   17.5910 O      9718 WAT       0.0907
   9719 WAT         7.4090   24.5940   17.8410 O      9719 WAT       0.2470
   9720 WAT         7.4090   24.5940   18.0910 O      9720 WAT       0.4192
   9721 WAT         7.4090   24.5940   18.3410 O      9721 WAT       0.4476
   9722 WAT         7.4090   24.5940   18.5910 O      9722 WAT       0.3022
   9723 WAT         7.4090   24.5940   18.8410 O      9723 WAT       0.1297
   9724 WAT         7.4090   24.8440    4.0910 O      9724 WAT       0.0471
   9725 WAT         7.4090   24.8440    4.3410 O      9725 WAT       0.0620
   9726 WAT         7.4090   24.8440    4.5910 O      9726 WAT       0.0701
   9727 WAT         7.4090   24.8440    4.8410 O      9727 WAT       0.0661
   9728 WAT         7.4090   24.8440    5.0910 O      9728 WAT       0.0509
   9729 WAT         7.4090   24.8440   17.8410 O      9729 WAT       0.0993
   9730 WAT         7.4090   24.8440   18.0910 O      9730 WAT       0.1667
   9731 WAT         7.4090   24.8440   18.3410 O      9731 WAT       0.1743
   9732 WAT         7.4090   24.8440   18.5910 O      9732 WAT       0.1142
   9733 WAT         7.4090   24.8440   18.8410 O      9733 WAT       0.0460
   9734 WAT         7.4090   25.0940    4.3410 O      9734 WAT       0.0476
   9735 WAT         7.4090   25.0940    4.5910 O      9735 WAT       0.0512
   9736 WAT         7.4090   25.0940    4.8410 O      9736 WAT       0.0458
   9737 WAT         7.4090   25.8440    3.3410 O      9737 WAT       0.0468
   9738 WAT         7.4090   25.8440    3.5910 O      9738 WAT       0.0568
   9739 WAT         7.4090   25.8440    3.8410 O      9739 WAT       0.0569
   9740 WAT         7.4090   25.8440    4.0910 O      9740 WAT       0.0477
   9741 WAT         7.4090   26.0940    2.8410 O      9741 WAT       0.0480
   9742 WAT         7.4090   26.0940    3.0910 O      9742 WAT       0.0787
   9743 WAT         7.4090   26.0940    3.3410 O      9743 WAT       0.1026
   9744 WAT         7.4090   26.0940    3.5910 O      9744 WAT       0.1067
   9745 WAT         7.4090   26.0940    3.8410 O      9745 WAT       0.0896
   9746 WAT         7.4090   26.0940    4.0910 O      9746 WAT       0.0616
   9747 WAT         7.4090   26.3440    2.5910 O      9747 WAT       0.0505
   9748 WAT         7.4090   26.3440    2.8410 O      9748 WAT       0.0966
   9749 WAT         7.4090   26.3440    3.0910 O      9749 WAT       0.1448
   9750 WAT         7.4090   26.3440    3.3410 O      9750 WAT       0.1692
   9751 WAT         7.4090   26.3440    3.5910 O      9751 WAT       0.1549
   9752 WAT         7.4090   26.3440    3.8410 O      9752 WAT       0.1123
   9753 WAT         7.4090   26.3440    4.0910 O      9753 WAT       0.0656
   9754 WAT         7.4090   26.5940    2.5910 O      9754 WAT       0.0751
   9755 WAT         7.4090   26.5940    2.8410 O      9755 WAT       0.1348
   9756 WAT         7.4090   26.5940    3.0910 O      9756 WAT       0.1869
   9757 WAT         7.4090   26.5940    3.3410 O      9757 WAT       0.1983
   9758 WAT         7.4090   26.5940    3.5910 O      9758 WAT       0.1618
   9759 WAT         7.4090   26.5940    3.8410 O      9759 WAT       0.1029
   9760 WAT         7.4090   26.5940    4.0910 O      9760 WAT       0.0519
   9761 WAT         7.4090   26.8440    2.5910 O      9761 WAT       0.0749
   9762 WAT         7.4090   26.8440    2.8410 O      9762 WAT       0.1270
   9763 WAT         7.4090   26.8440    3.0910 O      9763 WAT       0.1637
   9764 WAT         7.4090   26.8440    3.3410 O      9764 WAT       0.1591
   9765 WAT         7.4090   26.8440    3.5910 O      9765 WAT       0.1169
   9766 WAT         7.4090   26.8440    3.8410 O      9766 WAT       0.0658
   9767 WAT         7.4090   27.0940    2.5910 O      9767 WAT       0.0489
   9768 WAT         7.4090   27.0940    2.8410 O      9768 WAT       0.0786
   9769 WAT         7.4090   27.0940    3.0910 O      9769 WAT       0.0949
   9770 WAT         7.4090   27.0940    3.3410 O      9770 WAT       0.0851
   9771 WAT         7.4090   27.0940    3.5910 O      9771 WAT       0.0567
   9772 WAT         7.6590    9.0940   19.5910 O      9772 WAT       0.0469
   9773 WAT         7.6590    9.0940   19.8410 O      9773 WAT       0.0490
   9774 WAT         7.6590    9.0940   20.0910 O      9774 WAT       0.0474
   9775 WAT         7.6590    9.3440   19.3410 O      9775 WAT       0.0540
   9776 WAT         7.6590    9.3440   19.5910 O      9776 WAT       0.0616
   9777 WAT         7.6590    9.3440   19.8410 O      9777 WAT       0.0631
   9778 WAT         7.6590    9.3440   20.0910 O      9778 WAT       0.0578
   9779 WAT         7.6590    9.3440   20.3410 O      9779 WAT       0.0485
   9780 WAT         7.6590    9.5940   19.0910 O      9780 WAT       0.0525
   9781 WAT         7.6590    9.5940   19.3410 O      9781 WAT       0.0652
   9782 WAT         7.6590    9.5940   19.5910 O      9782 WAT       0.0729
   9783 WAT         7.6590    9.5940   19.8410 O      9783 WAT       0.0710
   9784 WAT         7.6590    9.5940   20.0910 O      9784 WAT       0.0605
   9785 WAT         7.6590    9.5940   20.3410 O      9785 WAT       0.0466
   9786 WAT         7.6590    9.8440   19.0910 O      9786 WAT       0.0577
   9787 WAT         7.6590    9.8440   19.3410 O      9787 WAT       0.0699
   9788 WAT         7.6590    9.8440   19.5910 O      9788 WAT       0.0738
   9789 WAT         7.6590    9.8440   19.8410 O      9789 WAT       0.0668
   9790 WAT         7.6590    9.8440   20.0910 O      9790 WAT       0.0524
   9791 WAT         7.6590   10.0940   19.0910 O      9791 WAT       0.0573
   9792 WAT         7.6590   10.0940   19.3410 O      9792 WAT       0.0650
   9793 WAT         7.6590   10.0940   19.5910 O      9793 WAT       0.0631
   9794 WAT         7.6590   10.0940   19.8410 O      9794 WAT       0.0521
   9795 WAT         7.6590   10.3440   19.0910 O      9795 WAT       0.0514
   9796 WAT         7.6590   10.3440   19.3410 O      9796 WAT       0.0530
   9797 WAT         7.6590   10.3440   19.5910 O      9797 WAT       0.0460
   9798 WAT         7.6590   11.8440   18.3410 O      9798 WAT       0.0503
   9799 WAT         7.6590   11.8440   18.5910 O      9799 WAT       0.0493
   9800 WAT         7.6590   11.8440   24.3410 O      9800 WAT       0.0532
   9801 WAT         7.6590   11.8440   24.5910 O      9801 WAT       0.0705
   9802 WAT         7.6590   11.8440   24.8410 O      9802 WAT       0.0624
   9803 WAT         7.6590   12.0940   18.0910 O      9803 WAT       0.0486
   9804 WAT         7.6590   12.0940   18.3410 O      9804 WAT       0.0547
   9805 WAT         7.6590   12.0940   18.5910 O      9805 WAT       0.0515
   9806 WAT         7.6590   12.0940   24.3410 O      9806 WAT       0.0802
   9807 WAT         7.6590   12.0940   24.5910 O      9807 WAT       0.1106
   9808 WAT         7.6590   12.0940   24.8410 O      9808 WAT       0.1016
   9809 WAT         7.6590   12.0940   25.0910 O      9809 WAT       0.0621
   9810 WAT         7.6590   12.3440   18.0910 O      9810 WAT       0.0475
   9811 WAT         7.6590   12.3440   18.3410 O      9811 WAT       0.0504
   9812 WAT         7.6590   12.3440   18.5910 O      9812 WAT       0.0454
   9813 WAT         7.6590   12.3440   24.0910 O      9813 WAT       0.0510
   9814 WAT         7.6590   12.3440   24.3410 O      9814 WAT       0.1073
   9815 WAT         7.6590   12.3440   24.5910 O      9815 WAT       0.1503
   9816 WAT         7.6590   12.3440   24.8410 O      9816 WAT       0.1403
   9817 WAT         7.6590   12.3440   25.0910 O      9817 WAT       0.0872
   9818 WAT         7.6590   12.5940   24.0910 O      9818 WAT       0.0651
   9819 WAT         7.6590   12.5940   24.3410 O      9819 WAT       0.1325
   9820 WAT         7.6590   12.5940   24.5910 O      9820 WAT       0.1829
   9821 WAT         7.6590   12.5940   24.8410 O      9821 WAT       0.1699
   9822 WAT         7.6590   12.5940   25.0910 O      9822 WAT       0.1053
   9823 WAT         7.6590   12.8440   24.0910 O      9823 WAT       0.0813
   9824 WAT         7.6590   12.8440   24.3410 O      9824 WAT       0.1503
   9825 WAT         7.6590   12.8440   24.5910 O      9825 WAT       0.1974
   9826 WAT         7.6590   12.8440   24.8410 O      9826 WAT       0.1783
   9827 WAT         7.6590   12.8440   25.0910 O      9827 WAT       0.1087
   9828 WAT         7.6590   13.0940   23.8410 O      9828 WAT       0.0487
   9829 WAT         7.6590   13.0940   24.0910 O      9829 WAT       0.0978
   9830 WAT         7.6590   13.0940   24.3410 O      9830 WAT       0.1554
   9831 WAT         7.6590   13.0940   24.5910 O      9831 WAT       0.1856
   9832 WAT         7.6590   13.0940   24.8410 O      9832 WAT       0.1585
   9833 WAT         7.6590   13.0940   25.0910 O      9833 WAT       0.0936
   9834 WAT         7.6590   13.3440   23.8410 O      9834 WAT       0.0620
   9835 WAT         7.6590   13.3440   24.0910 O      9835 WAT       0.1059
   9836 WAT         7.6590   13.3440   24.3410 O      9836 WAT       0.1437
   9837 WAT         7.6590   13.3440   24.5910 O      9837 WAT       0.1512
   9838 WAT         7.6590   13.3440   24.8410 O      9838 WAT       0.1185
   9839 WAT         7.6590   13.3440   25.0910 O      9839 WAT       0.0665
   9840 WAT         7.6590   13.5940   23.8410 O      9840 WAT       0.0590
   9841 WAT         7.6590   13.5940   24.0910 O      9841 WAT       0.0921
   9842 WAT         7.6590   13.5940   24.3410 O      9842 WAT       0.1121
   9843 WAT         7.6590   13.5940   24.5910 O      9843 WAT       0.1056
   9844 WAT         7.6590   13.5940   24.8410 O      9844 WAT       0.0758
   9845 WAT         7.6590   13.8440   19.8410 O      9845 WAT       0.0459
   9846 WAT         7.6590   13.8440   24.0910 O      9846 WAT       0.0586
   9847 WAT         7.6590   13.8440   24.3410 O      9847 WAT       0.0682
   9848 WAT         7.6590   13.8440   24.5910 O      9848 WAT       0.0612
   9849 WAT         7.6590   14.0940   19.5910 O      9849 WAT       0.0866
   9850 WAT         7.6590   14.0940   19.8410 O      9850 WAT       0.1238
   9851 WAT         7.6590   14.0940   20.0910 O      9851 WAT       0.1221
   9852 WAT         7.6590   14.0940   20.3410 O      9852 WAT       0.0836
   9853 WAT         7.6590   14.3440   19.3410 O      9853 WAT       0.0700
   9854 WAT         7.6590   14.3440   19.5910 O      9854 WAT       0.1498
   9855 WAT         7.6590   14.3440   19.8410 O      9855 WAT       0.2212
   9856 WAT         7.6590   14.3440   20.0910 O      9856 WAT       0.2258
   9857 WAT         7.6590   14.3440   20.3410 O      9857 WAT       0.1607
   9858 WAT         7.6590   14.3440   20.5910 O      9858 WAT       0.0808
   9859 WAT         7.6590   14.3440   25.3410 O      9859 WAT       0.0588
   9860 WAT         7.6590   14.3440   25.5910 O      9860 WAT       0.0564
   9861 WAT         7.6590   14.5940   11.0910 O      9861 WAT       0.0450
   9862 WAT         7.6590   14.5940   11.3410 O      9862 WAT       0.0477
   9863 WAT         7.6590   14.5940   11.5910 O      9863 WAT       0.0463
   9864 WAT         7.6590   14.5940   15.3410 O      9864 WAT       0.0474
   9865 WAT         7.6590   14.5940   15.5910 O      9865 WAT       0.0460
   9866 WAT         7.6590   14.5940   19.3410 O      9866 WAT       0.0805
   9867 WAT         7.6590   14.5940   19.5910 O      9867 WAT       0.1767
   9868 WAT         7.6590   14.5940   19.8410 O      9868 WAT       0.2681
   9869 WAT         7.6590   14.5940   20.0910 O      9869 WAT       0.2824
   9870 WAT         7.6590   14.5940   20.3410 O      9870 WAT       0.2081
   9871 WAT         7.6590   14.5940   20.5910 O      9871 WAT       0.1086
   9872 WAT         7.6590   14.5940   25.0910 O      9872 WAT       0.0641
   9873 WAT         7.6590   14.5940   25.3410 O      9873 WAT       0.1031
   9874 WAT         7.6590   14.5940   25.5910 O      9874 WAT       0.1118
   9875 WAT         7.6590   14.5940   25.8410 O      9875 WAT       0.0812
   9876 WAT         7.6590   14.8440   10.8410 O      9876 WAT       0.0511
   9877 WAT         7.6590   14.8440   11.0910 O      9877 WAT       0.0563
   9878 WAT         7.6590   14.8440   11.3410 O      9878 WAT       0.0571
   9879 WAT         7.6590   14.8440   11.5910 O      9879 WAT       0.0526
   9880 WAT         7.6590   14.8440   14.8410 O      9880 WAT       0.0494
   9881 WAT         7.6590   14.8440   15.0910 O      9881 WAT       0.0595
   9882 WAT         7.6590   14.8440   15.3410 O      9882 WAT       0.0608
   9883 WAT         7.6590   14.8440   15.5910 O      9883 WAT       0.0523
   9884 WAT         7.6590   14.8440   19.3410 O      9884 WAT       0.0648
   9885 WAT         7.6590   14.8440   19.5910 O      9885 WAT       0.1448
   9886 WAT         7.6590   14.8440   19.8410 O      9886 WAT       0.2246
   9887 WAT         7.6590   14.8440   20.0910 O      9887 WAT       0.2431
   9888 WAT         7.6590   14.8440   20.3410 O      9888 WAT       0.1847
   9889 WAT         7.6590   14.8440   20.5910 O      9889 WAT       0.0994
   9890 WAT         7.6590   14.8440   25.0910 O      9890 WAT       0.0826
   9891 WAT         7.6590   14.8440   25.3410 O      9891 WAT       0.1504
   9892 WAT         7.6590   14.8440   25.5910 O      9892 WAT       0.1828
   9893 WAT         7.6590   14.8440   25.8410 O      9893 WAT       0.1473
   9894 WAT         7.6590   14.8440   26.0910 O      9894 WAT       0.0779
   9895 WAT         7.6590   15.0940   10.5910 O      9895 WAT       0.0516
   9896 WAT         7.6590   15.0940   10.8410 O      9896 WAT       0.0581
   9897 WAT         7.6590   15.0940   11.0910 O      9897 WAT       0.0610
   9898 WAT         7.6590   15.0940   11.3410 O      9898 WAT       0.0587
   9899 WAT         7.6590   15.0940   11.5910 O      9899 WAT       0.0515
   9900 WAT         7.6590   15.0940   14.5910 O      9900 WAT       0.0580
   9901 WAT         7.6590   15.0940   14.8410 O      9901 WAT       0.0725
   9902 WAT         7.6590   15.0940   15.0910 O      9902 WAT       0.0781
   9903 WAT         7.6590   15.0940   15.3410 O      9903 WAT       0.0706
   9904 WAT         7.6590   15.0940   15.5910 O      9904 WAT       0.0535
   9905 WAT         7.6590   15.0940   19.5910 O      9905 WAT       0.0846
   9906 WAT         7.6590   15.0940   19.8410 O      9906 WAT       0.1333
   9907 WAT         7.6590   15.0940   20.0910 O      9907 WAT       0.1474
   9908 WAT         7.6590   15.0940   20.3410 O      9908 WAT       0.1148
   9909 WAT         7.6590   15.0940   20.5910 O      9909 WAT       0.0633
   9910 WAT         7.6590   15.0940   25.0910 O      9910 WAT       0.0913
   9911 WAT         7.6590   15.0940   25.3410 O      9911 WAT       0.1864
   9912 WAT         7.6590   15.0940   25.5910 O      9912 WAT       0.2503
   9913 WAT         7.6590   15.0940   25.8410 O      9913 WAT       0.2202
   9914 WAT         7.6590   15.0940   26.0910 O      9914 WAT       0.1261
   9915 WAT         7.6590   15.0940   26.3410 O      9915 WAT       0.0463
   9916 WAT         7.6590   15.3440   10.3410 O      9916 WAT       0.0472
   9917 WAT         7.6590   15.3440   10.5910 O      9917 WAT       0.0530
   9918 WAT         7.6590   15.3440   10.8410 O      9918 WAT       0.0562
   9919 WAT         7.6590   15.3440   11.0910 O      9919 WAT       0.0556
   9920 WAT         7.6590   15.3440   11.3410 O      9920 WAT       0.0506
   9921 WAT         7.6590   15.3440   14.0910 O      9921 WAT       0.0502
   9922 WAT         7.6590   15.3440   14.3410 O      9922 WAT       0.0654
   9923 WAT         7.6590   15.3440   14.5910 O      9923 WAT       0.0805
   9924 WAT         7.6590   15.3440   14.8410 O      9924 WAT       0.0893
   9925 WAT         7.6590   15.3440   15.0910 O      9925 WAT       0.0855
   9926 WAT         7.6590   15.3440   15.3410 O      9926 WAT       0.0687
   9927 WAT         7.6590   15.3440   15.5910 O      9927 WAT       0.0462
   9928 WAT         7.6590   15.3440   17.0910 O      9928 WAT       0.0459
   9929 WAT         7.6590   15.3440   17.3410 O      9929 WAT       0.0724
   9930 WAT         7.6590   15.3440   17.5910 O      9930 WAT       0.0842
   9931 WAT         7.6590   15.3440   17.8410 O      9931 WAT       0.0718
   9932 WAT         7.6590   15.3440   18.0910 O      9932 WAT       0.0455
   9933 WAT         7.6590   15.3440   19.8410 O      9933 WAT       0.0582
   9934 WAT         7.6590   15.3440   20.0910 O      9934 WAT       0.0651
   9935 WAT         7.6590   15.3440   20.3410 O      9935 WAT       0.0515
   9936 WAT         7.6590   15.3440   25.0910 O      9936 WAT       0.0883
   9937 WAT         7.6590   15.3440   25.3410 O      9937 WAT       0.1979
   9938 WAT         7.6590   15.3440   25.5910 O      9938 WAT       0.2876
   9939 WAT         7.6590   15.3440   25.8410 O      9939 WAT       0.2711
   9940 WAT         7.6590   15.3440   26.0910 O      9940 WAT       0.1653
   9941 WAT         7.6590   15.3440   26.3410 O      9941 WAT       0.0646
   9942 WAT         7.6590   15.5940   10.5910 O      9942 WAT       0.0464
   9943 WAT         7.6590   15.5940   10.8410 O      9943 WAT       0.0457
   9944 WAT         7.6590   15.5940   13.8410 O      9944 WAT       0.0587
   9945 WAT         7.6590   15.5940   14.0910 O      9945 WAT       0.0709
   9946 WAT         7.6590   15.5940   14.3410 O      9946 WAT       0.0805
   9947 WAT         7.6590   15.5940   14.5910 O      9947 WAT       0.0865
   9948 WAT         7.6590   15.5940   14.8410 O      9948 WAT       0.0847
   9949 WAT         7.6590   15.5940   15.0910 O      9949 WAT       0.0723
   9950 WAT         7.6590   15.5940   15.3410 O      9950 WAT       0.0521
   9951 WAT         7.6590   15.5940   17.0910 O      9951 WAT       0.0920
   9952 WAT         7.6590   15.5940   17.3410 O      9952 WAT       0.1457
   9953 WAT         7.6590   15.5940   17.5910 O      9953 WAT       0.1701
   9954 WAT         7.6590   15.5940   17.8410 O      9954 WAT       0.1465
   9955 WAT         7.6590   15.5940   18.0910 O      9955 WAT       0.0949
   9956 WAT         7.6590   15.5940   18.3410 O      9956 WAT       0.0478
   9957 WAT         7.6590   15.5940   25.0910 O      9957 WAT       0.0745
   9958 WAT         7.6590   15.5940   25.3410 O      9958 WAT       0.1797
   9959 WAT         7.6590   15.5940   25.5910 O      9959 WAT       0.2769
   9960 WAT         7.6590   15.5940   25.8410 O      9960 WAT       0.2749
   9961 WAT         7.6590   15.5940   26.0910 O      9961 WAT       0.1758
   9962 WAT         7.6590   15.5940   26.3410 O      9962 WAT       0.0720
   9963 WAT         7.6590   15.8440   13.5910 O      9963 WAT       0.0590
   9964 WAT         7.6590   15.8440   13.8410 O      9964 WAT       0.0706
   9965 WAT         7.6590   15.8440   14.0910 O      9965 WAT       0.0744
   9966 WAT         7.6590   15.8440   14.3410 O      9966 WAT       0.0726
   9967 WAT         7.6590   15.8440   14.5910 O      9967 WAT       0.0674
   9968 WAT         7.6590   15.8440   14.8410 O      9968 WAT       0.0582
   9969 WAT         7.6590   15.8440   16.8410 O      9969 WAT       0.0577
   9970 WAT         7.6590   15.8440   17.0910 O      9970 WAT       0.1192
   9971 WAT         7.6590   15.8440   17.3410 O      9971 WAT       0.1875
   9972 WAT         7.6590   15.8440   17.5910 O      9972 WAT       0.2192
   9973 WAT         7.6590   15.8440   17.8410 O      9973 WAT       0.1905
   9974 WAT         7.6590   15.8440   18.0910 O      9974 WAT       0.1255
   9975 WAT         7.6590   15.8440   18.3410 O      9975 WAT       0.0649
   9976 WAT         7.6590   15.8440   25.0910 O      9976 WAT       0.0550
   9977 WAT         7.6590   15.8440   25.3410 O      9977 WAT       0.1395
   9978 WAT         7.6590   15.8440   25.5910 O      9978 WAT       0.2240
   9979 WAT         7.6590   15.8440   25.8410 O      9979 WAT       0.2305
   9980 WAT         7.6590   15.8440   26.0910 O      9980 WAT       0.1521
   9981 WAT         7.6590   15.8440   26.3410 O      9981 WAT       0.0639
   9982 WAT         7.6590   16.0940   13.5910 O      9982 WAT       0.0573
   9983 WAT         7.6590   16.0940   13.8410 O      9983 WAT       0.0611
   9984 WAT         7.6590   16.0940   14.0910 O      9984 WAT       0.0559
   9985 WAT         7.6590   16.0940   14.3410 O      9985 WAT       0.0465
   9986 WAT         7.6590   16.0940   16.8410 O      9986 WAT       0.0483
   9987 WAT         7.6590   16.0940   17.0910 O      9987 WAT       0.0982
   9988 WAT         7.6590   16.0940   17.3410 O      9988 WAT       0.1530
   9989 WAT         7.6590   16.0940   17.5910 O      9989 WAT       0.1789
   9990 WAT         7.6590   16.0940   17.8410 O      9990 WAT       0.1568
   9991 WAT         7.6590   16.0940   18.0910 O      9991 WAT       0.1049
   9992 WAT         7.6590   16.0940   18.3410 O      9992 WAT       0.0553
   9993 WAT         7.6590   16.0940   25.3410 O      9993 WAT       0.0921
   9994 WAT         7.6590   16.0940   25.5910 O      9994 WAT       0.1516
   9995 WAT         7.6590   16.0940   25.8410 O      9995 WAT       0.1588
   9996 WAT         7.6590   16.0940   26.0910 O      9996 WAT       0.1060
   9997 WAT         7.6590   16.3440   17.0910 O      9997 WAT       0.0508
   9998 WAT         7.6590   16.3440   17.3410 O      9998 WAT       0.0785
   9999 WAT         7.6590   16.3440   17.5910 O      9999 WAT       0.0919
  10000 WAT         7.6590   16.3440   17.8410 O      10000 WAT       0.0812
  10001 WAT         7.6590   16.3440   18.0910 O      10001 WAT       0.0549
  10002 WAT         7.6590   16.3440   25.3410 O      10002 WAT       0.0502
  10003 WAT         7.6590   16.3440   25.5910 O      10003 WAT       0.0835
  10004 WAT         7.6590   16.3440   25.8410 O      10004 WAT       0.0875
  10005 WAT         7.6590   16.3440   26.0910 O      10005 WAT       0.0580
  10006 WAT         7.6590   18.5940    8.0910 O      10006 WAT       0.0455
  10007 WAT         7.6590   18.8440    8.0910 O      10007 WAT       0.0457
  10008 WAT         7.6590   18.8440    8.3410 O      10008 WAT       0.0485
  10009 WAT         7.6590   18.8440    8.5910 O      10009 WAT       0.0466
  10010 WAT         7.6590   19.0940    8.3410 O      10010 WAT       0.0508
  10011 WAT         7.6590   19.0940    8.5910 O      10011 WAT       0.0534
  10012 WAT         7.6590   19.0940    8.8410 O      10012 WAT       0.0502
  10013 WAT         7.6590   19.3440    8.3410 O      10013 WAT       0.0518
  10014 WAT         7.6590   19.3440    8.5910 O      10014 WAT       0.0590
  10015 WAT         7.6590   19.3440    8.8410 O      10015 WAT       0.0606
  10016 WAT         7.6590   19.3440    9.0910 O      10016 WAT       0.0531
  10017 WAT         7.6590   19.5940    8.3410 O      10017 WAT       0.0523
  10018 WAT         7.6590   19.5940    8.5910 O      10018 WAT       0.0629
  10019 WAT         7.6590   19.5940    8.8410 O      10019 WAT       0.0688
  10020 WAT         7.6590   19.5940    9.0910 O      10020 WAT       0.0645
  10021 WAT         7.6590   19.5940    9.3410 O      10021 WAT       0.0492
  10022 WAT         7.6590   19.8440    8.3410 O      10022 WAT       0.0515
  10023 WAT         7.6590   19.8440    8.5910 O      10023 WAT       0.0636
  10024 WAT         7.6590   19.8440    8.8410 O      10024 WAT       0.0721
  10025 WAT         7.6590   19.8440    9.0910 O      10025 WAT       0.0709
  10026 WAT         7.6590   19.8440    9.3410 O      10026 WAT       0.0575
  10027 WAT         7.6590   20.0940    8.3410 O      10027 WAT       0.0478
  10028 WAT         7.6590   20.0940    8.5910 O      10028 WAT       0.0590
  10029 WAT         7.6590   20.0940    8.8410 O      10029 WAT       0.0679
  10030 WAT         7.6590   20.0940    9.0910 O      10030 WAT       0.0691
  10031 WAT         7.6590   20.0940    9.3410 O      10031 WAT       0.0588
  10032 WAT         7.6590   20.3440    8.5910 O      10032 WAT       0.0494
  10033 WAT         7.6590   20.3440    8.8410 O      10033 WAT       0.0567
  10034 WAT         7.6590   20.3440    9.0910 O      10034 WAT       0.0590
  10035 WAT         7.6590   20.3440    9.3410 O      10035 WAT       0.0524
  10036 WAT         7.6590   20.5940    9.0910 O      10036 WAT       0.0455
  10037 WAT         7.6590   23.0940    8.3410 O      10037 WAT       0.0460
  10038 WAT         7.6590   23.3440   18.0910 O      10038 WAT       0.0475
  10039 WAT         7.6590   23.3440   18.3410 O      10039 WAT       0.0656
  10040 WAT         7.6590   23.3440   18.5910 O      10040 WAT       0.0596
  10041 WAT         7.6590   23.5940   17.8410 O      10041 WAT       0.0924
  10042 WAT         7.6590   23.5940   18.0910 O      10042 WAT       0.1821
  10043 WAT         7.6590   23.5940   18.3410 O      10043 WAT       0.2343
  10044 WAT         7.6590   23.5940   18.5910 O      10044 WAT       0.1999
  10045 WAT         7.6590   23.5940   18.8410 O      10045 WAT       0.1139
  10046 WAT         7.6590   23.8440    4.3410 O      10046 WAT       0.0471
  10047 WAT         7.6590   23.8440    4.5910 O      10047 WAT       0.0502
  10048 WAT         7.6590   23.8440    4.8410 O      10048 WAT       0.0486
  10049 WAT         7.6590   23.8440   17.5910 O      10049 WAT       0.0780
  10050 WAT         7.6590   23.8440   17.8410 O      10050 WAT       0.2304
  10051 WAT         7.6590   23.8440   18.0910 O      10051 WAT       0.4347
  10052 WAT         7.6590   23.8440   18.3410 O      10052 WAT       0.5325
  10053 WAT         7.6590   23.8440   18.5910 O      10053 WAT       0.4279
  10054 WAT         7.6590   23.8440   18.8410 O      10054 WAT       0.2282
  10055 WAT         7.6590   23.8440   19.0910 O      10055 WAT       0.0808
  10056 WAT         7.6590   24.0940    4.0910 O      10056 WAT       0.0505
  10057 WAT         7.6590   24.0940    4.3410 O      10057 WAT       0.0626
  10058 WAT         7.6590   24.0940    4.5910 O      10058 WAT       0.0696
  10059 WAT         7.6590   24.0940    4.8410 O      10059 WAT       0.0688
  10060 WAT         7.6590   24.0940    5.0910 O      10060 WAT       0.0589
  10061 WAT         7.6590   24.0940   17.5910 O      10061 WAT       0.1271
  10062 WAT         7.6590   24.0940   17.8410 O      10062 WAT       0.3641
  10063 WAT         7.6590   24.0940   18.0910 O      10063 WAT       0.6646
  10064 WAT         7.6590   24.0940   18.3410 O      10064 WAT       0.7803
  10065 WAT         7.6590   24.0940   18.5910 O      10065 WAT       0.5944
  10066 WAT         7.6590   24.0940   18.8410 O      10066 WAT       0.2971
  10067 WAT         7.6590   24.0940   19.0910 O      10067 WAT       0.0980
  10068 WAT         7.6590   24.3440    4.0910 O      10068 WAT       0.0552
  10069 WAT         7.6590   24.3440    4.3410 O      10069 WAT       0.0728
  10070 WAT         7.6590   24.3440    4.5910 O      10070 WAT       0.0847
  10071 WAT         7.6590   24.3440    4.8410 O      10071 WAT       0.0854
  10072 WAT         7.6590   24.3440    5.0910 O      10072 WAT       0.0727
  10073 WAT         7.6590   24.3440    5.3410 O      10073 WAT       0.0511
  10074 WAT         7.6590   24.3440   17.5910 O      10074 WAT       0.1298
  10075 WAT         7.6590   24.3440   17.8410 O      10075 WAT       0.3643
  10076 WAT         7.6590   24.3440   18.0910 O      10076 WAT       0.6468
  10077 WAT         7.6590   24.3440   18.3410 O      10077 WAT       0.7321
  10078 WAT         7.6590   24.3440   18.5910 O      10078 WAT       0.5323
  10079 WAT         7.6590   24.3440   18.8410 O      10079 WAT       0.2511
  10080 WAT         7.6590   24.3440   19.0910 O      10080 WAT       0.0769
  10081 WAT         7.6590   24.5940    4.0910 O      10081 WAT       0.0525
  10082 WAT         7.6590   24.5940    4.3410 O      10082 WAT       0.0731
  10083 WAT         7.6590   24.5940    4.5910 O      10083 WAT       0.0880
  10084 WAT         7.6590   24.5940    4.8410 O      10084 WAT       0.0896
  10085 WAT         7.6590   24.5940    5.0910 O      10085 WAT       0.0754
  10086 WAT         7.6590   24.5940    5.3410 O      10086 WAT       0.0513
  10087 WAT         7.6590   24.5940   17.5910 O      10087 WAT       0.0826
  10088 WAT         7.6590   24.5940   17.8410 O      10088 WAT       0.2294
  10089 WAT         7.6590   24.5940   18.0910 O      10089 WAT       0.3979
  10090 WAT         7.6590   24.5940   18.3410 O      10090 WAT       0.4366
  10091 WAT         7.6590   24.5940   18.5910 O      10091 WAT       0.3049
  10092 WAT         7.6590   24.5940   18.8410 O      10092 WAT       0.1365
  10093 WAT         7.6590   24.8440    4.3410 O      10093 WAT       0.0641
  10094 WAT         7.6590   24.8440    4.5910 O      10094 WAT       0.0780
  10095 WAT         7.6590   24.8440    4.8410 O      10095 WAT       0.0789
  10096 WAT         7.6590   24.8440    5.0910 O      10096 WAT       0.0648
  10097 WAT         7.6590   24.8440   17.8410 O      10097 WAT       0.0897
  10098 WAT         7.6590   24.8440   18.0910 O      10098 WAT       0.1534
  10099 WAT         7.6590   24.8440   18.3410 O      10099 WAT       0.1641
  10100 WAT         7.6590   24.8440   18.5910 O      10100 WAT       0.1105
  10101 WAT         7.6590   24.8440   18.8410 O      10101 WAT       0.0462
  10102 WAT         7.6590   25.0940    4.3410 O      10102 WAT       0.0509
  10103 WAT         7.6590   25.0940    4.5910 O      10103 WAT       0.0603
  10104 WAT         7.6590   25.0940    4.8410 O      10104 WAT       0.0589
  10105 WAT         7.6590   25.0940    5.0910 O      10105 WAT       0.0464
  10106 WAT         7.6590   25.8440    3.5910 O      10106 WAT       0.0466
  10107 WAT         7.6590   25.8440    3.8410 O      10107 WAT       0.0499
  10108 WAT         7.6590   25.8440    4.0910 O      10108 WAT       0.0456
  10109 WAT         7.6590   26.0940    3.0910 O      10109 WAT       0.0609
  10110 WAT         7.6590   26.0940    3.3410 O      10110 WAT       0.0829
  10111 WAT         7.6590   26.0940    3.5910 O      10111 WAT       0.0909
  10112 WAT         7.6590   26.0940    3.8410 O      10112 WAT       0.0812
  10113 WAT         7.6590   26.0940    4.0910 O      10113 WAT       0.0603
  10114 WAT         7.6590   26.3440    2.8410 O      10114 WAT       0.0727
  10115 WAT         7.6590   26.3440    3.0910 O      10115 WAT       0.1143
  10116 WAT         7.6590   26.3440    3.3410 O      10116 WAT       0.1413
  10117 WAT         7.6590   26.3440    3.5910 O      10117 WAT       0.1374
  10118 WAT         7.6590   26.3440    3.8410 O      10118 WAT       0.1064
  10119 WAT         7.6590   26.3440    4.0910 O      10119 WAT       0.0669
  10120 WAT         7.6590   26.5940    2.5910 O      10120 WAT       0.0541
  10121 WAT         7.6590   26.5940    2.8410 O      10121 WAT       0.1022
  10122 WAT         7.6590   26.5940    3.0910 O      10122 WAT       0.1506
  10123 WAT         7.6590   26.5940    3.3410 O      10123 WAT       0.1709
  10124 WAT         7.6590   26.5940    3.5910 O      10124 WAT       0.1495
  10125 WAT         7.6590   26.5940    3.8410 O      10125 WAT       0.1023
  10126 WAT         7.6590   26.5940    4.0910 O      10126 WAT       0.0558
  10127 WAT         7.6590   26.8440    2.5910 O      10127 WAT       0.0535
  10128 WAT         7.6590   26.8440    2.8410 O      10128 WAT       0.0969
  10129 WAT         7.6590   26.8440    3.0910 O      10129 WAT       0.1348
  10130 WAT         7.6590   26.8440    3.3410 O      10130 WAT       0.1418
  10131 WAT         7.6590   26.8440    3.5910 O      10131 WAT       0.1128
  10132 WAT         7.6590   26.8440    3.8410 O      10132 WAT       0.0689
  10133 WAT         7.6590   27.0940    2.8410 O      10133 WAT       0.0604
  10134 WAT         7.6590   27.0940    3.0910 O      10134 WAT       0.0798
  10135 WAT         7.6590   27.0940    3.3410 O      10135 WAT       0.0784
  10136 WAT         7.6590   27.0940    3.5910 O      10136 WAT       0.0573
  10137 WAT         7.9090    9.0940   19.5910 O      10137 WAT       0.0454
  10138 WAT         7.9090    9.3440   19.0910 O      10138 WAT       0.0503
  10139 WAT         7.9090    9.3440   19.3410 O      10139 WAT       0.0562
  10140 WAT         7.9090    9.3440   19.5910 O      10140 WAT       0.0572
  10141 WAT         7.9090    9.3440   19.8410 O      10141 WAT       0.0516
  10142 WAT         7.9090    9.5940   18.8410 O      10142 WAT       0.0485
  10143 WAT         7.9090    9.5940   19.0910 O      10143 WAT       0.0591
  10144 WAT         7.9090    9.5940   19.3410 O      10144 WAT       0.0663
  10145 WAT         7.9090    9.5940   19.5910 O      10145 WAT       0.0655
  10146 WAT         7.9090    9.5940   19.8410 O      10146 WAT       0.0557
  10147 WAT         7.9090    9.8440   18.8410 O      10147 WAT       0.0518
  10148 WAT         7.9090    9.8440   19.0910 O      10148 WAT       0.0638
  10149 WAT         7.9090    9.8440   19.3410 O      10149 WAT       0.0695
  10150 WAT         7.9090    9.8440   19.5910 O      10150 WAT       0.0646
  10151 WAT         7.9090    9.8440   19.8410 O      10151 WAT       0.0507
  10152 WAT         7.9090   10.0940   18.8410 O      10152 WAT       0.0515
  10153 WAT         7.9090   10.0940   19.0910 O      10153 WAT       0.0616
  10154 WAT         7.9090   10.0940   19.3410 O      10154 WAT       0.0631
  10155 WAT         7.9090   10.0940   19.5910 O      10155 WAT       0.0540
  10156 WAT         7.9090   10.3440   18.8410 O      10156 WAT       0.0477
  10157 WAT         7.9090   10.3440   19.0910 O      10157 WAT       0.0530
  10158 WAT         7.9090   10.3440   19.3410 O      10158 WAT       0.0495
  10159 WAT         7.9090   11.8440   18.3410 O      10159 WAT       0.0491
  10160 WAT         7.9090   11.8440   18.5910 O      10160 WAT       0.0456
  10161 WAT         7.9090   12.0940   18.0910 O      10161 WAT       0.0490
  10162 WAT         7.9090   12.0940   18.3410 O      10162 WAT       0.0535
  10163 WAT         7.9090   12.0940   18.5910 O      10163 WAT       0.0474
  10164 WAT         7.9090   12.0940   24.5910 O      10164 WAT       0.0608
  10165 WAT         7.9090   12.0940   24.8410 O      10165 WAT       0.0586
  10166 WAT         7.9090   12.3440   18.0910 O      10166 WAT       0.0479
  10167 WAT         7.9090   12.3440   18.3410 O      10167 WAT       0.0488
  10168 WAT         7.9090   12.3440   24.3410 O      10168 WAT       0.0619
  10169 WAT         7.9090   12.3440   24.5910 O      10169 WAT       0.0913
  10170 WAT         7.9090   12.3440   24.8410 O      10170 WAT       0.0887
  10171 WAT         7.9090   12.3440   25.0910 O      10171 WAT       0.0568
  10172 WAT         7.9090   12.5940   24.3410 O      10172 WAT       0.0836
  10173 WAT         7.9090   12.5940   24.5910 O      10173 WAT       0.1204
  10174 WAT         7.9090   12.5940   24.8410 O      10174 WAT       0.1156
  10175 WAT         7.9090   12.5940   25.0910 O      10175 WAT       0.0736
  10176 WAT         7.9090   12.8440   24.0910 O      10176 WAT       0.0534
  10177 WAT         7.9090   12.8440   24.3410 O      10177 WAT       0.1030
  10178 WAT         7.9090   12.8440   24.5910 O      10178 WAT       0.1395
  10179 WAT         7.9090   12.8440   24.8410 O      10179 WAT       0.1294
  10180 WAT         7.9090   12.8440   25.0910 O      10180 WAT       0.0806
  10181 WAT         7.9090   13.0940   24.0910 O      10181 WAT       0.0705
  10182 WAT         7.9090   13.0940   24.3410 O      10182 WAT       0.1164
  10183 WAT         7.9090   13.0940   24.5910 O      10183 WAT       0.1421
  10184 WAT         7.9090   13.0940   24.8410 O      10184 WAT       0.1234
  10185 WAT         7.9090   13.0940   25.0910 O      10185 WAT       0.0740
  10186 WAT         7.9090   13.3440   24.0910 O      10186 WAT       0.0820
  10187 WAT         7.9090   13.3440   24.3410 O      10187 WAT       0.1176
  10188 WAT         7.9090   13.3440   24.5910 O      10188 WAT       0.1270
  10189 WAT         7.9090   13.3440   24.8410 O      10189 WAT       0.1007
  10190 WAT         7.9090   13.3440   25.0910 O      10190 WAT       0.0572
  10191 WAT         7.9090   13.5940   24.0910 O      10191 WAT       0.0748
  10192 WAT         7.9090   13.5940   24.3410 O      10192 WAT       0.0984
  10193 WAT         7.9090   13.5940   24.5910 O      10193 WAT       0.0970
  10194 WAT         7.9090   13.5940   24.8410 O      10194 WAT       0.0716
  10195 WAT         7.9090   13.8440   19.5910 O      10195 WAT       0.0592
  10196 WAT         7.9090   13.8440   19.8410 O      10196 WAT       0.0707
  10197 WAT         7.9090   13.8440   20.0910 O      10197 WAT       0.0573
  10198 WAT         7.9090   13.8440   24.0910 O      10198 WAT       0.0492
  10199 WAT         7.9090   13.8440   24.3410 O      10199 WAT       0.0630
  10200 WAT         7.9090   13.8440   24.5910 O      10200 WAT       0.0608
  10201 WAT         7.9090   13.8440   24.8410 O      10201 WAT       0.0461
  10202 WAT         7.9090   14.0940   19.3410 O      10202 WAT       0.0773
  10203 WAT         7.9090   14.0940   19.5910 O      10203 WAT       0.1401
  10204 WAT         7.9090   14.0940   19.8410 O      10204 WAT       0.1732
  10205 WAT         7.9090   14.0940   20.0910 O      10205 WAT       0.1460
  10206 WAT         7.9090   14.0940   20.3410 O      10206 WAT       0.0843
  10207 WAT         7.9090   14.3440   19.3410 O      10207 WAT       0.1189
  10208 WAT         7.9090   14.3440   19.5910 O      10208 WAT       0.2211
  10209 WAT         7.9090   14.3440   19.8410 O      10209 WAT       0.2811
  10210 WAT         7.9090   14.3440   20.0910 O      10210 WAT       0.2449
  10211 WAT         7.9090   14.3440   20.3410 O      10211 WAT       0.1472
  10212 WAT         7.9090   14.3440   20.5910 O      10212 WAT       0.0614
  10213 WAT         7.9090   14.3440   25.3410 O      10213 WAT       0.0576
  10214 WAT         7.9090   14.3440   25.5910 O      10214 WAT       0.0538
  10215 WAT         7.9090   14.5940   11.3410 O      10215 WAT       0.0455
  10216 WAT         7.9090   14.5940   19.0910 O      10216 WAT       0.0451
  10217 WAT         7.9090   14.5940   19.3410 O      10217 WAT       0.1248
  10218 WAT         7.9090   14.5940   19.5910 O      10218 WAT       0.2363
  10219 WAT         7.9090   14.5940   19.8410 O      10219 WAT       0.3077
  10220 WAT         7.9090   14.5940   20.0910 O      10220 WAT       0.2763
  10221 WAT         7.9090   14.5940   20.3410 O      10221 WAT       0.1721
  10222 WAT         7.9090   14.5940   20.5910 O      10222 WAT       0.0749
  10223 WAT         7.9090   14.5940   25.0910 O      10223 WAT       0.0571
  10224 WAT         7.9090   14.5940   25.3410 O      10224 WAT       0.0895
  10225 WAT         7.9090   14.5940   25.5910 O      10225 WAT       0.0951
  10226 WAT         7.9090   14.5940   25.8410 O      10226 WAT       0.0675
  10227 WAT         7.9090   14.8440   10.8410 O      10227 WAT       0.0484
  10228 WAT         7.9090   14.8440   11.0910 O      10228 WAT       0.0536
  10229 WAT         7.9090   14.8440   11.3410 O      10229 WAT       0.0550
  10230 WAT         7.9090   14.8440   11.5910 O      10230 WAT       0.0516
  10231 WAT         7.9090   14.8440   14.8410 O      10231 WAT       0.0472
  10232 WAT         7.9090   14.8440   15.0910 O      10232 WAT       0.0564
  10233 WAT         7.9090   14.8440   15.3410 O      10233 WAT       0.0566
  10234 WAT         7.9090   14.8440   15.5910 O      10234 WAT       0.0474
  10235 WAT         7.9090   14.8440   19.3410 O      10235 WAT       0.0911
  10236 WAT         7.9090   14.8440   19.5910 O      10236 WAT       0.1744
  10237 WAT         7.9090   14.8440   19.8410 O      10237 WAT       0.2316
  10238 WAT         7.9090   14.8440   20.0910 O      10238 WAT       0.2138
  10239 WAT         7.9090   14.8440   20.3410 O      10239 WAT       0.1375
  10240 WAT         7.9090   14.8440   20.5910 O      10240 WAT       0.0619
  10241 WAT         7.9090   14.8440   25.0910 O      10241 WAT       0.0641
  10242 WAT         7.9090   14.8440   25.3410 O      10242 WAT       0.1148
  10243 WAT         7.9090   14.8440   25.5910 O      10243 WAT       0.1371
  10244 WAT         7.9090   14.8440   25.8410 O      10244 WAT       0.1083
  10245 WAT         7.9090   14.8440   26.0910 O      10245 WAT       0.0559
  10246 WAT         7.9090   15.0940   10.5910 O      10246 WAT       0.0466
  10247 WAT         7.9090   15.0940   10.8410 O      10247 WAT       0.0532
  10248 WAT         7.9090   15.0940   11.0910 O      10248 WAT       0.0572
  10249 WAT         7.9090   15.0940   11.3410 O      10249 WAT       0.0565
  10250 WAT         7.9090   15.0940   11.5910 O      10250 WAT       0.0509
  10251 WAT         7.9090   15.0940   14.5910 O      10251 WAT       0.0538
  10252 WAT         7.9090   15.0940   14.8410 O      10252 WAT       0.0682
  10253 WAT         7.9090   15.0940   15.0910 O      10253 WAT       0.0735
  10254 WAT         7.9090   15.0940   15.3410 O      10254 WAT       0.0658
  10255 WAT         7.9090   15.0940   15.5910 O      10255 WAT       0.0487
  10256 WAT         7.9090   15.0940   19.3410 O      10256 WAT       0.0476
  10257 WAT         7.9090   15.0940   19.5910 O      10257 WAT       0.0914
  10258 WAT         7.9090   15.0940   19.8410 O      10258 WAT       0.1230
  10259 WAT         7.9090   15.0940   20.0910 O      10259 WAT       0.1160
  10260 WAT         7.9090   15.0940   20.3410 O      10260 WAT       0.0766
  10261 WAT         7.9090   15.0940   25.0910 O      10261 WAT       0.0613
  10262 WAT         7.9090   15.0940   25.3410 O      10262 WAT       0.1239
  10263 WAT         7.9090   15.0940   25.5910 O      10263 WAT       0.1641
  10264 WAT         7.9090   15.0940   25.8410 O      10264 WAT       0.1423
  10265 WAT         7.9090   15.0940   26.0910 O      10265 WAT       0.0800
  10266 WAT         7.9090   15.3440   10.8410 O      10266 WAT       0.0490
  10267 WAT         7.9090   15.3440   11.0910 O      10267 WAT       0.0502
  10268 WAT         7.9090   15.3440   11.3410 O      10268 WAT       0.0475
  10269 WAT         7.9090   15.3440   14.3410 O      10269 WAT       0.0582
  10270 WAT         7.9090   15.3440   14.5910 O      10270 WAT       0.0746
  10271 WAT         7.9090   15.3440   14.8410 O      10271 WAT       0.0849
  10272 WAT         7.9090   15.3440   15.0910 O      10272 WAT       0.0819
  10273 WAT         7.9090   15.3440   15.3410 O      10273 WAT       0.0654
  10274 WAT         7.9090   15.3440   17.0910 O      10274 WAT       0.0515
  10275 WAT         7.9090   15.3440   17.3410 O      10275 WAT       0.0781
  10276 WAT         7.9090   15.3440   17.5910 O      10276 WAT       0.0872
  10277 WAT         7.9090   15.3440   17.8410 O      10277 WAT       0.0711
  10278 WAT         7.9090   15.3440   19.8410 O      10278 WAT       0.0476
  10279 WAT         7.9090   15.3440   20.0910 O      10279 WAT       0.0453
  10280 WAT         7.9090   15.3440   25.0910 O      10280 WAT       0.0508
  10281 WAT         7.9090   15.3440   25.3410 O      10281 WAT       0.1140
  10282 WAT         7.9090   15.3440   25.5910 O      10282 WAT       0.1648
  10283 WAT         7.9090   15.3440   25.8410 O      10283 WAT       0.1542
  10284 WAT         7.9090   15.3440   26.0910 O      10284 WAT       0.0930
  10285 WAT         7.9090   15.5940   13.8410 O      10285 WAT       0.0465
  10286 WAT         7.9090   15.5940   14.0910 O      10286 WAT       0.0599
  10287 WAT         7.9090   15.5940   14.3410 O      10287 WAT       0.0729
  10288 WAT         7.9090   15.5940   14.5910 O      10288 WAT       0.0828
  10289 WAT         7.9090   15.5940   14.8410 O      10289 WAT       0.0839
  10290 WAT         7.9090   15.5940   15.0910 O      10290 WAT       0.0726
  10291 WAT         7.9090   15.5940   15.3410 O      10291 WAT       0.0524
  10292 WAT         7.9090   15.5940   16.8410 O      10292 WAT       0.0543
  10293 WAT         7.9090   15.5940   17.0910 O      10293 WAT       0.1075
  10294 WAT         7.9090   15.5940   17.3410 O      10294 WAT       0.1628
  10295 WAT         7.9090   15.5940   17.5910 O      10295 WAT       0.1824
  10296 WAT         7.9090   15.5940   17.8410 O      10296 WAT       0.1502
  10297 WAT         7.9090   15.5940   18.0910 O      10297 WAT       0.0919
  10298 WAT         7.9090   15.5940   25.3410 O      10298 WAT       0.0900
  10299 WAT         7.9090   15.5940   25.5910 O      10299 WAT       0.1395
  10300 WAT         7.9090   15.5940   25.8410 O      10300 WAT       0.1386
  10301 WAT         7.9090   15.5940   26.0910 O      10301 WAT       0.0884
  10302 WAT         7.9090   15.8440   13.8410 O      10302 WAT       0.0560
  10303 WAT         7.9090   15.8440   14.0910 O      10303 WAT       0.0644
  10304 WAT         7.9090   15.8440   14.3410 O      10304 WAT       0.0688
  10305 WAT         7.9090   15.8440   14.5910 O      10305 WAT       0.0685
  10306 WAT         7.9090   15.8440   14.8410 O      10306 WAT       0.0617
  10307 WAT         7.9090   15.8440   15.0910 O      10307 WAT       0.0482
  10308 WAT         7.9090   15.8440   16.8410 O      10308 WAT       0.0752
  10309 WAT         7.9090   15.8440   17.0910 O      10309 WAT       0.1464
  10310 WAT         7.9090   15.8440   17.3410 O      10310 WAT       0.2193
  10311 WAT         7.9090   15.8440   17.5910 O      10311 WAT       0.2454
  10312 WAT         7.9090   15.8440   17.8410 O      10312 WAT       0.2035
  10313 WAT         7.9090   15.8440   18.0910 O      10313 WAT       0.1262
  10314 WAT         7.9090   15.8440   18.3410 O      10314 WAT       0.0600
  10315 WAT         7.9090   15.8440   25.3410 O      10315 WAT       0.0611
  10316 WAT         7.9090   15.8440   25.5910 O      10316 WAT       0.1000
  10317 WAT         7.9090   15.8440   25.8410 O      10317 WAT       0.1040
  10318 WAT         7.9090   15.8440   26.0910 O      10318 WAT       0.0689
  10319 WAT         7.9090   16.0940   13.8410 O      10319 WAT       0.0494
  10320 WAT         7.9090   16.0940   14.0910 O      10320 WAT       0.0505
  10321 WAT         7.9090   16.0940   14.3410 O      10321 WAT       0.0470
  10322 WAT         7.9090   16.0940   16.8410 O      10322 WAT       0.0676
  10323 WAT         7.9090   16.0940   17.0910 O      10323 WAT       0.1281
  10324 WAT         7.9090   16.0940   17.3410 O      10324 WAT       0.1892
  10325 WAT         7.9090   16.0940   17.5910 O      10325 WAT       0.2112
  10326 WAT         7.9090   16.0940   17.8410 O      10326 WAT       0.1763
  10327 WAT         7.9090   16.0940   18.0910 O      10327 WAT       0.1106
  10328 WAT         7.9090   16.0940   18.3410 O      10328 WAT       0.0531
  10329 WAT         7.9090   16.0940   25.5910 O      10329 WAT       0.0607
  10330 WAT         7.9090   16.0940   25.8410 O      10330 WAT       0.0648
  10331 WAT         7.9090   16.3440   17.0910 O      10331 WAT       0.0716
  10332 WAT         7.9090   16.3440   17.3410 O      10332 WAT       0.1042
  10333 WAT         7.9090   16.3440   17.5910 O      10333 WAT       0.1160
  10334 WAT         7.9090   16.3440   17.8410 O      10334 WAT       0.0973
  10335 WAT         7.9090   16.3440   18.0910 O      10335 WAT       0.0614
  10336 WAT         7.9090   19.3440    8.5910 O      10336 WAT       0.0485
  10337 WAT         7.9090   19.3440    8.8410 O      10337 WAT       0.0466
  10338 WAT         7.9090   19.5940    8.3410 O      10338 WAT       0.0466
  10339 WAT         7.9090   19.5940    8.5910 O      10339 WAT       0.0535
  10340 WAT         7.9090   19.5940    8.8410 O      10340 WAT       0.0551
  10341 WAT         7.9090   19.5940    9.0910 O      10341 WAT       0.0481
  10342 WAT         7.9090   19.8440    8.3410 O      10342 WAT       0.0467
  10343 WAT         7.9090   19.8440    8.5910 O      10343 WAT       0.0553
  10344 WAT         7.9090   19.8440    8.8410 O      10344 WAT       0.0593
  10345 WAT         7.9090   19.8440    9.0910 O      10345 WAT       0.0545
  10346 WAT         7.9090   20.0940    8.5910 O      10346 WAT       0.0514
  10347 WAT         7.9090   20.0940    8.8410 O      10347 WAT       0.0562
  10348 WAT         7.9090   20.0940    9.0910 O      10348 WAT       0.0538
  10349 WAT         7.9090   20.3440    8.8410 O      10349 WAT       0.0461
  10350 WAT         7.9090   20.3440    9.0910 O      10350 WAT       0.0454
  10351 WAT         7.9090   22.8440    7.8410 O      10351 WAT       0.0483
  10352 WAT         7.9090   22.8440    8.0910 O      10352 WAT       0.0514
  10353 WAT         7.9090   22.8440    8.3410 O      10353 WAT       0.0495
  10354 WAT         7.9090   23.0940    7.8410 O      10354 WAT       0.0451
  10355 WAT         7.9090   23.0940    8.0910 O      10355 WAT       0.0504
  10356 WAT         7.9090   23.0940    8.3410 O      10356 WAT       0.0510
  10357 WAT         7.9090   23.0940    8.5910 O      10357 WAT       0.0464
  10358 WAT         7.9090   23.3440   18.3410 O      10358 WAT       0.0513
  10359 WAT         7.9090   23.3440   18.5910 O      10359 WAT       0.0508
  10360 WAT         7.9090   23.5940   17.8410 O      10360 WAT       0.0607
  10361 WAT         7.9090   23.5940   18.0910 O      10361 WAT       0.1274
  10362 WAT         7.9090   23.5940   18.3410 O      10362 WAT       0.1745
  10363 WAT         7.9090   23.5940   18.5910 O      10363 WAT       0.1599
  10364 WAT         7.9090   23.5940   18.8410 O      10364 WAT       0.0990
  10365 WAT         7.9090   23.8440   17.5910 O      10365 WAT       0.0469
  10366 WAT         7.9090   23.8440   17.8410 O      10366 WAT       0.1472
  10367 WAT         7.9090   23.8440   18.0910 O      10367 WAT       0.2906
  10368 WAT         7.9090   23.8440   18.3410 O      10368 WAT       0.3757
  10369 WAT         7.9090   23.8440   18.5910 O      10369 WAT       0.3220
  10370 WAT         7.9090   23.8440   18.8410 O      10370 WAT       0.1851
  10371 WAT         7.9090   23.8440   19.0910 O      10371 WAT       0.0716
  10372 WAT         7.9090   24.0940    4.3410 O      10372 WAT       0.0491
  10373 WAT         7.9090   24.0940    4.5910 O      10373 WAT       0.0572
  10374 WAT         7.9090   24.0940    4.8410 O      10374 WAT       0.0596
  10375 WAT         7.9090   24.0940    5.0910 O      10375 WAT       0.0544
  10376 WAT         7.9090   24.0940   17.5910 O      10376 WAT       0.0753
  10377 WAT         7.9090   24.0940   17.8410 O      10377 WAT       0.2243
  10378 WAT         7.9090   24.0940   18.0910 O      10378 WAT       0.4252
  10379 WAT         7.9090   24.0940   18.3410 O      10379 WAT       0.5226
  10380 WAT         7.9090   24.0940   18.5910 O      10380 WAT       0.4211
  10381 WAT         7.9090   24.0940   18.8410 O      10381 WAT       0.2252
  10382 WAT         7.9090   24.0940   19.0910 O      10382 WAT       0.0800
  10383 WAT         7.9090   24.3440    4.3410 O      10383 WAT       0.0593
  10384 WAT         7.9090   24.3440    4.5910 O      10384 WAT       0.0729
  10385 WAT         7.9090   24.3440    4.8410 O      10385 WAT       0.0778
  10386 WAT         7.9090   24.3440    5.0910 O      10386 WAT       0.0705
  10387 WAT         7.9090   24.3440    5.3410 O      10387 WAT       0.0525
  10388 WAT         7.9090   24.3440   17.5910 O      10388 WAT       0.0747
  10389 WAT         7.9090   24.3440   17.8410 O      10389 WAT       0.2168
  10390 WAT         7.9090   24.3440   18.0910 O      10390 WAT       0.3973
  10391 WAT         7.9090   24.3440   18.3410 O      10391 WAT       0.4674
  10392 WAT         7.9090   24.3440   18.5910 O      10392 WAT       0.3565
  10393 WAT         7.9090   24.3440   18.8410 O      10393 WAT       0.1783
  10394 WAT         7.9090   24.3440   19.0910 O      10394 WAT       0.0579
  10395 WAT         7.9090   24.5940    4.3410 O      10395 WAT       0.0620
  10396 WAT         7.9090   24.5940    4.5910 O      10396 WAT       0.0796
  10397 WAT         7.9090   24.5940    4.8410 O      10397 WAT       0.0864
  10398 WAT         7.9090   24.5940    5.0910 O      10398 WAT       0.0773
  10399 WAT         7.9090   24.5940    5.3410 O      10399 WAT       0.0555
  10400 WAT         7.9090   24.5940   17.5910 O      10400 WAT       0.0456
  10401 WAT         7.9090   24.5940   17.8410 O      10401 WAT       0.1321
  10402 WAT         7.9090   24.5940   18.0910 O      10402 WAT       0.2356
  10403 WAT         7.9090   24.5940   18.3410 O      10403 WAT       0.2668
  10404 WAT         7.9090   24.5940   18.5910 O      10404 WAT       0.1939
  10405 WAT         7.9090   24.5940   18.8410 O      10405 WAT       0.0909
  10406 WAT         7.9090   24.8440    4.3410 O      10406 WAT       0.0561
  10407 WAT         7.9090   24.8440    4.5910 O      10407 WAT       0.0737
  10408 WAT         7.9090   24.8440    4.8410 O      10408 WAT       0.0802
  10409 WAT         7.9090   24.8440    5.0910 O      10409 WAT       0.0703
  10410 WAT         7.9090   24.8440    5.3410 O      10410 WAT       0.0486
  10411 WAT         7.9090   24.8440   17.8410 O      10411 WAT       0.0493
  10412 WAT         7.9090   24.8440   18.0910 O      10412 WAT       0.0874
  10413 WAT         7.9090   24.8440   18.3410 O      10413 WAT       0.0961
  10414 WAT         7.9090   24.8440   18.5910 O      10414 WAT       0.0665
  10415 WAT         7.9090   25.0940    4.3410 O      10415 WAT       0.0454
  10416 WAT         7.9090   25.0940    4.5910 O      10416 WAT       0.0588
  10417 WAT         7.9090   25.0940    4.8410 O      10417 WAT       0.0624
  10418 WAT         7.9090   25.0940    5.0910 O      10418 WAT       0.0528
  10419 WAT         7.9090   26.0940    3.0910 O      10419 WAT       0.0483
  10420 WAT         7.9090   26.0940    3.3410 O      10420 WAT       0.0635
  10421 WAT         7.9090   26.0940    3.5910 O      10421 WAT       0.0694
  10422 WAT         7.9090   26.0940    3.8410 O      10422 WAT       0.0629
  10423 WAT         7.9090   26.0940    4.0910 O      10423 WAT       0.0482
  10424 WAT         7.9090   26.3440    2.8410 O      10424 WAT       0.0583
  10425 WAT         7.9090   26.3440    3.0910 O      10425 WAT       0.0878
  10426 WAT         7.9090   26.3440    3.3410 O      10426 WAT       0.1086
  10427 WAT         7.9090   26.3440    3.5910 O      10427 WAT       0.1079
  10428 WAT         7.9090   26.3440    3.8410 O      10428 WAT       0.0860
  10429 WAT         7.9090   26.3440    4.0910 O      10429 WAT       0.0559
  10430 WAT         7.9090   26.5940    2.8410 O      10430 WAT       0.0781
  10431 WAT         7.9090   26.5940    3.0910 O      10431 WAT       0.1145
  10432 WAT         7.9090   26.5940    3.3410 O      10432 WAT       0.1335
  10433 WAT         7.9090   26.5940    3.5910 O      10433 WAT       0.1214
  10434 WAT         7.9090   26.5940    3.8410 O      10434 WAT       0.0867
  10435 WAT         7.9090   26.5940    4.0910 O      10435 WAT       0.0492
  10436 WAT         7.9090   26.8440    2.8410 O      10436 WAT       0.0724
  10437 WAT         7.9090   26.8440    3.0910 O      10437 WAT       0.1030
  10438 WAT         7.9090   26.8440    3.3410 O      10438 WAT       0.1134
  10439 WAT         7.9090   26.8440    3.5910 O      10439 WAT       0.0952
  10440 WAT         7.9090   26.8440    3.8410 O      10440 WAT       0.0613
  10441 WAT         7.9090   27.0940    3.0910 O      10441 WAT       0.0616
  10442 WAT         7.9090   27.0940    3.3410 O      10442 WAT       0.0645
  10443 WAT         7.9090   27.0940    3.5910 O      10443 WAT       0.0503
  10444 WAT         8.1590    9.3440   18.8410 O      10444 WAT       0.0459
  10445 WAT         8.1590    9.3440   19.0910 O      10445 WAT       0.0501
  10446 WAT         8.1590    9.3440   19.3410 O      10446 WAT       0.0499
  10447 WAT         8.1590    9.5940   18.8410 O      10447 WAT       0.0527
  10448 WAT         8.1590    9.5940   19.0910 O      10448 WAT       0.0588
  10449 WAT         8.1590    9.5940   19.3410 O      10449 WAT       0.0583
  10450 WAT         8.1590    9.5940   19.5910 O      10450 WAT       0.0496
  10451 WAT         8.1590    9.8440   18.5910 O      10451 WAT       0.0458
  10452 WAT         8.1590    9.8440   18.8410 O      10452 WAT       0.0564
  10453 WAT         8.1590    9.8440   19.0910 O      10453 WAT       0.0633
  10454 WAT         8.1590    9.8440   19.3410 O      10454 WAT       0.0610
  10455 WAT         8.1590    9.8440   19.5910 O      10455 WAT       0.0489
  10456 WAT         8.1590   10.0940   18.8410 O      10456 WAT       0.0555
  10457 WAT         8.1590   10.0940   19.0910 O      10457 WAT       0.0608
  10458 WAT         8.1590   10.0940   19.3410 O      10458 WAT       0.0555
  10459 WAT         8.1590   10.3440   18.8410 O      10459 WAT       0.0499
  10460 WAT         8.1590   10.3440   19.0910 O      10460 WAT       0.0513
  10461 WAT         8.1590   12.0940   18.0910 O      10461 WAT       0.0462
  10462 WAT         8.1590   12.0940   18.3410 O      10462 WAT       0.0484
  10463 WAT         8.1590   12.3440   18.0910 O      10463 WAT       0.0460
  10464 WAT         8.1590   12.5940   24.5910 O      10464 WAT       0.0596
  10465 WAT         8.1590   12.5940   24.8410 O      10465 WAT       0.0586
  10466 WAT         8.1590   12.8440   24.3410 O      10466 WAT       0.0550
  10467 WAT         8.1590   12.8440   24.5910 O      10467 WAT       0.0758
  10468 WAT         8.1590   12.8440   24.8410 O      10468 WAT       0.0712
  10469 WAT         8.1590   13.0940   24.3410 O      10469 WAT       0.0695
  10470 WAT         8.1590   13.0940   24.5910 O      10470 WAT       0.0853
  10471 WAT         8.1590   13.0940   24.8410 O      10471 WAT       0.0742
  10472 WAT         8.1590   13.3440   24.0910 O      10472 WAT       0.0520
  10473 WAT         8.1590   13.3440   24.3410 O      10473 WAT       0.0774
  10474 WAT         8.1590   13.3440   24.5910 O      10474 WAT       0.0847
  10475 WAT         8.1590   13.3440   24.8410 O      10475 WAT       0.0674
  10476 WAT         8.1590   13.5940   24.0910 O      10476 WAT       0.0501
  10477 WAT         8.1590   13.5940   24.3410 O      10477 WAT       0.0698
  10478 WAT         8.1590   13.5940   24.5910 O      10478 WAT       0.0712
  10479 WAT         8.1590   13.5940   24.8410 O      10479 WAT       0.0539
  10480 WAT         8.1590   13.8440   19.3410 O      10480 WAT       0.0570
  10481 WAT         8.1590   13.8440   19.5910 O      10481 WAT       0.0876
  10482 WAT         8.1590   13.8440   19.8410 O      10482 WAT       0.0912
  10483 WAT         8.1590   13.8440   20.0910 O      10483 WAT       0.0634
  10484 WAT         8.1590   13.8440   24.3410 O      10484 WAT       0.0472
  10485 WAT         8.1590   13.8440   24.5910 O      10485 WAT       0.0484
  10486 WAT         8.1590   14.0940   19.0910 O      10486 WAT       0.0515
  10487 WAT         8.1590   14.0940   19.3410 O      10487 WAT       0.1194
  10488 WAT         8.1590   14.0940   19.5910 O      10488 WAT       0.1895
  10489 WAT         8.1590   14.0940   19.8410 O      10489 WAT       0.2030
  10490 WAT         8.1590   14.0940   20.0910 O      10490 WAT       0.1463
  10491 WAT         8.1590   14.0940   20.3410 O      10491 WAT       0.0711
  10492 WAT         8.1590   14.3440   19.0910 O      10492 WAT       0.0709
  10493 WAT         8.1590   14.3440   19.3410 O      10493 WAT       0.1683
  10494 WAT         8.1590   14.3440   19.5910 O      10494 WAT       0.2720
  10495 WAT         8.1590   14.3440   19.8410 O      10495 WAT       0.2977
  10496 WAT         8.1590   14.3440   20.0910 O      10496 WAT       0.2209
  10497 WAT         8.1590   14.3440   20.3410 O      10497 WAT       0.1116
  10498 WAT         8.1590   14.3440   25.3410 O      10498 WAT       0.0461
  10499 WAT         8.1590   14.5940   19.0910 O      10499 WAT       0.0673
  10500 WAT         8.1590   14.5940   19.3410 O      10500 WAT       0.1609
  10501 WAT         8.1590   14.5940   19.5910 O      10501 WAT       0.2626
  10502 WAT         8.1590   14.5940   19.8410 O      10502 WAT       0.2926
  10503 WAT         8.1590   14.5940   20.0910 O      10503 WAT       0.2229
  10504 WAT         8.1590   14.5940   20.3410 O      10504 WAT       0.1165
  10505 WAT         8.1590   14.5940   25.3410 O      10505 WAT       0.0624
  10506 WAT         8.1590   14.5940   25.5910 O      10506 WAT       0.0637
  10507 WAT         8.1590   14.8440   11.0910 O      10507 WAT       0.0462
  10508 WAT         8.1590   14.8440   11.3410 O      10508 WAT       0.0472
  10509 WAT         8.1590   14.8440   15.0910 O      10509 WAT       0.0464
  10510 WAT         8.1590   14.8440   15.3410 O      10510 WAT       0.0461
  10511 WAT         8.1590   14.8440   19.3410 O      10511 WAT       0.1063
  10512 WAT         8.1590   14.8440   19.5910 O      10512 WAT       0.1738
  10513 WAT         8.1590   14.8440   19.8410 O      10513 WAT       0.1963
  10514 WAT         8.1590   14.8440   20.0910 O      10514 WAT       0.1531
  10515 WAT         8.1590   14.8440   20.3410 O      10515 WAT       0.0826
  10516 WAT         8.1590   14.8440   25.3410 O      10516 WAT       0.0684
  10517 WAT         8.1590   14.8440   25.5910 O      10517 WAT       0.0787
  10518 WAT         8.1590   14.8440   25.8410 O      10518 WAT       0.0599
  10519 WAT         8.1590   15.0940   11.0910 O      10519 WAT       0.0471
  10520 WAT         8.1590   15.0940   11.3410 O      10520 WAT       0.0472
  10521 WAT         8.1590   15.0940   14.8410 O      10521 WAT       0.0562
  10522 WAT         8.1590   15.0940   15.0910 O      10522 WAT       0.0604
  10523 WAT         8.1590   15.0940   15.3410 O      10523 WAT       0.0536
  10524 WAT         8.1590   15.0940   19.3410 O      10524 WAT       0.0498
  10525 WAT         8.1590   15.0940   19.5910 O      10525 WAT       0.0810
  10526 WAT         8.1590   15.0940   19.8410 O      10526 WAT       0.0921
  10527 WAT         8.1590   15.0940   20.0910 O      10527 WAT       0.0731
  10528 WAT         8.1590   15.0940   25.3410 O      10528 WAT       0.0619
  10529 WAT         8.1590   15.0940   25.5910 O      10529 WAT       0.0796
  10530 WAT         8.1590   15.0940   25.8410 O      10530 WAT       0.0670
  10531 WAT         8.1590   15.3440   14.3410 O      10531 WAT       0.0475
  10532 WAT         8.1590   15.3440   14.5910 O      10532 WAT       0.0620
  10533 WAT         8.1590   15.3440   14.8410 O      10533 WAT       0.0714
  10534 WAT         8.1590   15.3440   15.0910 O      10534 WAT       0.0691
  10535 WAT         8.1590   15.3440   15.3410 O      10535 WAT       0.0548
  10536 WAT         8.1590   15.3440   17.0910 O      10536 WAT       0.0483
  10537 WAT         8.1590   15.3440   17.3410 O      10537 WAT       0.0709
  10538 WAT         8.1590   15.3440   17.5910 O      10538 WAT       0.0770
  10539 WAT         8.1590   15.3440   17.8410 O      10539 WAT       0.0612
  10540 WAT         8.1590   15.3440   25.3410 O      10540 WAT       0.0473
  10541 WAT         8.1590   15.3440   25.5910 O      10541 WAT       0.0674
  10542 WAT         8.1590   15.3440   25.8410 O      10542 WAT       0.0619
  10543 WAT         8.1590   15.5940   14.0910 O      10543 WAT       0.0477
  10544 WAT         8.1590   15.5940   14.3410 O      10544 WAT       0.0605
  10545 WAT         8.1590   15.5940   14.5910 O      10545 WAT       0.0713
  10546 WAT         8.1590   15.5940   14.8410 O      10546 WAT       0.0741
  10547 WAT         8.1590   15.5940   15.0910 O      10547 WAT       0.0648
  10548 WAT         8.1590   15.5940   15.3410 O      10548 WAT       0.0466
  10549 WAT         8.1590   15.5940   16.8410 O      10549 WAT       0.0566
  10550 WAT         8.1590   15.5940   17.0910 O      10550 WAT       0.1073
  10551 WAT         8.1590   15.5940   17.3410 O      10551 WAT       0.1571
  10552 WAT         8.1590   15.5940   17.5910 O      10552 WAT       0.1715
  10553 WAT         8.1590   15.5940   17.8410 O      10553 WAT       0.1379
  10554 WAT         8.1590   15.5940   18.0910 O      10554 WAT       0.0819
  10555 WAT         8.1590   15.5940   25.5910 O      10555 WAT       0.0484
  10556 WAT         8.1590   15.5940   25.8410 O      10556 WAT       0.0479
  10557 WAT         8.1590   15.8440   14.0910 O      10557 WAT       0.0519
  10558 WAT         8.1590   15.8440   14.3410 O      10558 WAT       0.0597
  10559 WAT         8.1590   15.8440   14.5910 O      10559 WAT       0.0630
  10560 WAT         8.1590   15.8440   14.8410 O      10560 WAT       0.0589
  10561 WAT         8.1590   15.8440   15.0910 O      10561 WAT       0.0469
  10562 WAT         8.1590   15.8440   16.8410 O      10562 WAT       0.0850
  10563 WAT         8.1590   15.8440   17.0910 O      10563 WAT       0.1571
  10564 WAT         8.1590   15.8440   17.3410 O      10564 WAT       0.2274
  10565 WAT         8.1590   15.8440   17.5910 O      10565 WAT       0.2483
  10566 WAT         8.1590   15.8440   17.8410 O      10566 WAT       0.2013
  10567 WAT         8.1590   15.8440   18.0910 O      10567 WAT       0.1209
  10568 WAT         8.1590   15.8440   18.3410 O      10568 WAT       0.0545
  10569 WAT         8.1590   16.0940   16.8410 O      10569 WAT       0.0841
  10570 WAT         8.1590   16.0940   17.0910 O      10570 WAT       0.1502
  10571 WAT         8.1590   16.0940   17.3410 O      10571 WAT       0.2139
  10572 WAT         8.1590   16.0940   17.5910 O      10572 WAT       0.2333
  10573 WAT         8.1590   16.0940   17.8410 O      10573 WAT       0.1904
  10574 WAT         8.1590   16.0940   18.0910 O      10574 WAT       0.1154
  10575 WAT         8.1590   16.0940   18.3410 O      10575 WAT       0.0522
  10576 WAT         8.1590   16.3440   16.8410 O      10576 WAT       0.0546
  10577 WAT         8.1590   16.3440   17.0910 O      10577 WAT       0.0936
  10578 WAT         8.1590   16.3440   17.3410 O      10578 WAT       0.1309
  10579 WAT         8.1590   16.3440   17.5910 O      10579 WAT       0.1424
  10580 WAT         8.1590   16.3440   17.8410 O      10580 WAT       0.1169
  10581 WAT         8.1590   16.3440   18.0910 O      10581 WAT       0.0711
  10582 WAT         8.1590   16.5940   17.3410 O      10582 WAT       0.0519
  10583 WAT         8.1590   16.5940   17.5910 O      10583 WAT       0.0562
  10584 WAT         8.1590   16.5940   17.8410 O      10584 WAT       0.0461
  10585 WAT         8.1590   21.8440   16.5910 O      10585 WAT       0.0452
  10586 WAT         8.1590   21.8440   16.8410 O      10586 WAT       0.0648
  10587 WAT         8.1590   21.8440   17.0910 O      10587 WAT       0.0594
  10588 WAT         8.1590   22.0940   16.5910 O      10588 WAT       0.0676
  10589 WAT         8.1590   22.0940   16.8410 O      10589 WAT       0.0973
  10590 WAT         8.1590   22.0940   17.0910 O      10590 WAT       0.0909
  10591 WAT         8.1590   22.0940   17.3410 O      10591 WAT       0.0552
  10592 WAT         8.1590   22.3440   16.5910 O      10592 WAT       0.0642
  10593 WAT         8.1590   22.3440   16.8410 O      10593 WAT       0.0936
  10594 WAT         8.1590   22.3440   17.0910 O      10594 WAT       0.0886
  10595 WAT         8.1590   22.3440   17.3410 O      10595 WAT       0.0546
  10596 WAT         8.1590   22.5940   16.8410 O      10596 WAT       0.0574
  10597 WAT         8.1590   22.5940   17.0910 O      10597 WAT       0.0548
  10598 WAT         8.1590   22.8440    8.0910 O      10598 WAT       0.0462
  10599 WAT         8.1590   23.5940   18.0910 O      10599 WAT       0.0554
  10600 WAT         8.1590   23.5940   18.3410 O      10600 WAT       0.0821
  10601 WAT         8.1590   23.5940   18.5910 O      10601 WAT       0.0813
  10602 WAT         8.1590   23.5940   18.8410 O      10602 WAT       0.0549
  10603 WAT         8.1590   23.8440   17.8410 O      10603 WAT       0.0582
  10604 WAT         8.1590   23.8440   18.0910 O      10604 WAT       0.1228
  10605 WAT         8.1590   23.8440   18.3410 O      10605 WAT       0.1688
  10606 WAT         8.1590   23.8440   18.5910 O      10606 WAT       0.1549
  10607 WAT         8.1590   23.8440   18.8410 O      10607 WAT       0.0960
  10608 WAT         8.1590   24.0940    4.8410 O      10608 WAT       0.0478
  10609 WAT         8.1590   24.0940    5.0910 O      10609 WAT       0.0473
  10610 WAT         8.1590   24.0940   17.8410 O      10610 WAT       0.0863
  10611 WAT         8.1590   24.0940   18.0910 O      10611 WAT       0.1717
  10612 WAT         8.1590   24.0940   18.3410 O      10612 WAT       0.2225
  10613 WAT         8.1590   24.0940   18.5910 O      10613 WAT       0.1907
  10614 WAT         8.1590   24.0940   18.8410 O      10614 WAT       0.1091
  10615 WAT         8.1590   24.3440    4.5910 O      10615 WAT       0.0556
  10616 WAT         8.1590   24.3440    4.8410 O      10616 WAT       0.0639
  10617 WAT         8.1590   24.3440    5.0910 O      10617 WAT       0.0621
  10618 WAT         8.1590   24.3440    5.3410 O      10618 WAT       0.0489
  10619 WAT         8.1590   24.3440   17.8410 O      10619 WAT       0.0803
  10620 WAT         8.1590   24.3440   18.0910 O      10620 WAT       0.1535
  10621 WAT         8.1590   24.3440   18.3410 O      10621 WAT       0.1889
  10622 WAT         8.1590   24.3440   18.5910 O      10622 WAT       0.1520
  10623 WAT         8.1590   24.3440   18.8410 O      10623 WAT       0.0803
  10624 WAT         8.1590   24.5940    4.3410 O      10624 WAT       0.0454
  10625 WAT         8.1590   24.5940    4.5910 O      10625 WAT       0.0625
  10626 WAT         8.1590   24.5940    4.8410 O      10626 WAT       0.0729
  10627 WAT         8.1590   24.5940    5.0910 O      10627 WAT       0.0695
  10628 WAT         8.1590   24.5940    5.3410 O      10628 WAT       0.0525
  10629 WAT         8.1590   24.5940   17.8410 O      10629 WAT       0.0462
  10630 WAT         8.1590   24.5940   18.0910 O      10630 WAT       0.0870
  10631 WAT         8.1590   24.5940   18.3410 O      10631 WAT       0.1025
  10632 WAT         8.1590   24.5940   18.5910 O      10632 WAT       0.0776
  10633 WAT         8.1590   24.8440    4.5910 O      10633 WAT       0.0593
  10634 WAT         8.1590   24.8440    4.8410 O      10634 WAT       0.0692
  10635 WAT         8.1590   24.8440    5.0910 O      10635 WAT       0.0645
  10636 WAT         8.1590   24.8440    5.3410 O      10636 WAT       0.0469
  10637 WAT         8.1590   25.0940    4.5910 O      10637 WAT       0.0474
  10638 WAT         8.1590   25.0940    4.8410 O      10638 WAT       0.0541
  10639 WAT         8.1590   25.0940    5.0910 O      10639 WAT       0.0488
  10640 WAT         8.1590   25.0940    7.5910 O      10640 WAT       0.0463
  10641 WAT         8.1590   25.3440    7.5910 O      10641 WAT       0.0506
  10642 WAT         8.1590   25.3440    7.8410 O      10642 WAT       0.0482
  10643 WAT         8.1590   26.0940    3.0910 O      10643 WAT       0.0510
  10644 WAT         8.1590   26.0940    3.3410 O      10644 WAT       0.0542
  10645 WAT         8.1590   26.0940    3.5910 O      10645 WAT       0.0513
  10646 WAT         8.1590   26.3440    2.5910 O      10646 WAT       0.0495
  10647 WAT         8.1590   26.3440    2.8410 O      10647 WAT       0.0657
  10648 WAT         8.1590   26.3440    3.0910 O      10648 WAT       0.0797
  10649 WAT         8.1590   26.3440    3.3410 O      10649 WAT       0.0855
  10650 WAT         8.1590   26.3440    3.5910 O      10650 WAT       0.0779
  10651 WAT         8.1590   26.3440    3.8410 O      10651 WAT       0.0591
  10652 WAT         8.1590   26.5940    2.5910 O      10652 WAT       0.0546
  10653 WAT         8.1590   26.5940    2.8410 O      10653 WAT       0.0764
  10654 WAT         8.1590   26.5940    3.0910 O      10654 WAT       0.0954
  10655 WAT         8.1590   26.5940    3.3410 O      10655 WAT       0.1013
  10656 WAT         8.1590   26.5940    3.5910 O      10656 WAT       0.0879
  10657 WAT         8.1590   26.5940    3.8410 O      10657 WAT       0.0613
  10658 WAT         8.1590   26.8440    2.8410 O      10658 WAT       0.0647
  10659 WAT         8.1590   26.8440    3.0910 O      10659 WAT       0.0818
  10660 WAT         8.1590   26.8440    3.3410 O      10660 WAT       0.0852
  10661 WAT         8.1590   26.8440    3.5910 O      10661 WAT       0.0700
  10662 WAT         8.1590   27.0940    3.0910 O      10662 WAT       0.0479
  10663 WAT         8.1590   27.0940    3.3410 O      10663 WAT       0.0486
  10664 WAT         8.4090    9.5940   18.5910 O      10664 WAT       0.0453
  10665 WAT         8.4090    9.5940   18.8410 O      10665 WAT       0.0508
  10666 WAT         8.4090    9.5940   19.0910 O      10666 WAT       0.0512
  10667 WAT         8.4090    9.8440   18.5910 O      10667 WAT       0.0485
  10668 WAT         8.4090    9.8440   18.8410 O      10668 WAT       0.0554
  10669 WAT         8.4090    9.8440   19.0910 O      10669 WAT       0.0560
  10670 WAT         8.4090    9.8440   19.3410 O      10670 WAT       0.0472
  10671 WAT         8.4090   10.0940   18.5910 O      10671 WAT       0.0482
  10672 WAT         8.4090   10.0940   18.8410 O      10672 WAT       0.0555
  10673 WAT         8.4090   10.0940   19.0910 O      10673 WAT       0.0550
  10674 WAT         8.4090   10.3440   18.8410 O      10674 WAT       0.0500
  10675 WAT         8.4090   10.3440   19.0910 O      10675 WAT       0.0474
  10676 WAT         8.4090   13.8440   19.3410 O      10676 WAT       0.0808
  10677 WAT         8.4090   13.8440   19.5910 O      10677 WAT       0.1108
  10678 WAT         8.4090   13.8440   19.8410 O      10678 WAT       0.1014
  10679 WAT         8.4090   13.8440   20.0910 O      10679 WAT       0.0611
  10680 WAT         8.4090   14.0940   19.0910 O      10680 WAT       0.0757
  10681 WAT         8.4090   14.0940   19.3410 O      10681 WAT       0.1567
  10682 WAT         8.4090   14.0940   19.5910 O      10682 WAT       0.2195
  10683 WAT         8.4090   14.0940   19.8410 O      10683 WAT       0.2049
  10684 WAT         8.4090   14.0940   20.0910 O      10684 WAT       0.1270
  10685 WAT         8.4090   14.0940   20.3410 O      10685 WAT       0.0519
  10686 WAT         8.4090   14.3440   19.0910 O      10686 WAT       0.0968
  10687 WAT         8.4090   14.3440   19.3410 O      10687 WAT       0.2029
  10688 WAT         8.4090   14.3440   19.5910 O      10688 WAT       0.2866
  10689 WAT         8.4090   14.3440   19.8410 O      10689 WAT       0.2712
  10690 WAT         8.4090   14.3440   20.0910 O      10690 WAT       0.1718
  10691 WAT         8.4090   14.3440   20.3410 O      10691 WAT       0.0727
  10692 WAT         8.4090   14.5940   19.0910 O      10692 WAT       0.0850
  10693 WAT         8.4090   14.5940   19.3410 O      10693 WAT       0.1773
  10694 WAT         8.4090   14.5940   19.5910 O      10694 WAT       0.2503
  10695 WAT         8.4090   14.5940   19.8410 O      10695 WAT       0.2389
  10696 WAT         8.4090   14.5940   20.0910 O      10696 WAT       0.1541
  10697 WAT         8.4090   14.5940   20.3410 O      10697 WAT       0.0670
  10698 WAT         8.4090   14.8440   19.0910 O      10698 WAT       0.0518
  10699 WAT         8.4090   14.8440   19.3410 O      10699 WAT       0.1066
  10700 WAT         8.4090   14.8440   19.5910 O      10700 WAT       0.1490
  10701 WAT         8.4090   14.8440   19.8410 O      10701 WAT       0.1424
  10702 WAT         8.4090   14.8440   20.0910 O      10702 WAT       0.0931
  10703 WAT         8.4090   15.0940   19.5910 O      10703 WAT       0.0618
  10704 WAT         8.4090   15.0940   19.8410 O      10704 WAT       0.0585
  10705 WAT         8.4090   15.3440   14.5910 O      10705 WAT       0.0471
  10706 WAT         8.4090   15.3440   14.8410 O      10706 WAT       0.0539
  10707 WAT         8.4090   15.3440   15.0910 O      10707 WAT       0.0517
  10708 WAT         8.4090   15.3440   17.3410 O      10708 WAT       0.0545
  10709 WAT         8.4090   15.3440   17.5910 O      10709 WAT       0.0581
  10710 WAT         8.4090   15.3440   17.8410 O      10710 WAT       0.0453
  10711 WAT         8.4090   15.5940   14.3410 O      10711 WAT       0.0475
  10712 WAT         8.4090   15.5940   14.5910 O      10712 WAT       0.0566
  10713 WAT         8.4090   15.5940   14.8410 O      10713 WAT       0.0593
  10714 WAT         8.4090   15.5940   15.0910 O      10714 WAT       0.0519
  10715 WAT         8.4090   15.5940   16.8410 O      10715 WAT       0.0505
  10716 WAT         8.4090   15.5940   17.0910 O      10716 WAT       0.0918
  10717 WAT         8.4090   15.5940   17.3410 O      10717 WAT       0.1311
  10718 WAT         8.4090   15.5940   17.5910 O      10718 WAT       0.1409
  10719 WAT         8.4090   15.5940   17.8410 O      10719 WAT       0.1119
  10720 WAT         8.4090   15.5940   18.0910 O      10720 WAT       0.0651
  10721 WAT         8.4090   15.8440   14.3410 O      10721 WAT       0.0488
  10722 WAT         8.4090   15.8440   14.5910 O      10722 WAT       0.0537
  10723 WAT         8.4090   15.8440   14.8410 O      10723 WAT       0.0516
  10724 WAT         8.4090   15.8440   16.8410 O      10724 WAT       0.0834
  10725 WAT         8.4090   15.8440   17.0910 O      10725 WAT       0.1476
  10726 WAT         8.4090   15.8440   17.3410 O      10726 WAT       0.2086
  10727 WAT         8.4090   15.8440   17.5910 O      10727 WAT       0.2250
  10728 WAT         8.4090   15.8440   17.8410 O      10728 WAT       0.1803
  10729 WAT         8.4090   15.8440   18.0910 O      10729 WAT       0.1061
  10730 WAT         8.4090   15.8440   18.3410 O      10730 WAT       0.0459
  10731 WAT         8.4090   16.0940   16.5910 O      10731 WAT       0.0472
  10732 WAT         8.4090   16.0940   16.8410 O      10732 WAT       0.0926
  10733 WAT         8.4090   16.0940   17.0910 O      10733 WAT       0.1576
  10734 WAT         8.4090   16.0940   17.3410 O      10734 WAT       0.2191
  10735 WAT         8.4090   16.0940   17.5910 O      10735 WAT       0.2364
  10736 WAT         8.4090   16.0940   17.8410 O      10736 WAT       0.1908
  10737 WAT         8.4090   16.0940   18.0910 O      10737 WAT       0.1129
  10738 WAT         8.4090   16.0940   18.3410 O      10738 WAT       0.0488
  10739 WAT         8.4090   16.3440   16.8410 O      10739 WAT       0.0691
  10740 WAT         8.4090   16.3440   17.0910 O      10740 WAT       0.1122
  10741 WAT         8.4090   16.3440   17.3410 O      10741 WAT       0.1527
  10742 WAT         8.4090   16.3440   17.5910 O      10742 WAT       0.1641
  10743 WAT         8.4090   16.3440   17.8410 O      10743 WAT       0.1330
  10744 WAT         8.4090   16.3440   18.0910 O      10744 WAT       0.0788
  10745 WAT         8.4090   16.5940   17.0910 O      10745 WAT       0.0535
  10746 WAT         8.4090   16.5940   17.3410 O      10746 WAT       0.0709
  10747 WAT         8.4090   16.5940   17.5910 O      10747 WAT       0.0755
  10748 WAT         8.4090   16.5940   17.8410 O      10748 WAT       0.0611
  10749 WAT         8.4090   21.5940   16.5910 O      10749 WAT       0.0671
  10750 WAT         8.4090   21.5940   16.8410 O      10750 WAT       0.0941
  10751 WAT         8.4090   21.5940   17.0910 O      10751 WAT       0.0850
  10752 WAT         8.4090   21.5940   17.3410 O      10752 WAT       0.0496
  10753 WAT         8.4090   21.8440   16.3410 O      10753 WAT       0.0693
  10754 WAT         8.4090   21.8440   16.5910 O      10754 WAT       0.1521
  10755 WAT         8.4090   21.8440   16.8410 O      10755 WAT       0.2138
  10756 WAT         8.4090   21.8440   17.0910 O      10756 WAT       0.1963
  10757 WAT         8.4090   21.8440   17.3410 O      10757 WAT       0.1188
  10758 WAT         8.4090   21.8440   17.5910 O      10758 WAT       0.0468
  10759 WAT         8.4090   22.0940   16.3410 O      10759 WAT       0.1004
  10760 WAT         8.4090   22.0940   16.5910 O      10760 WAT       0.2202
  10761 WAT         8.4090   22.0940   16.8410 O      10761 WAT       0.3128
  10762 WAT         8.4090   22.0940   17.0910 O      10762 WAT       0.2914
  10763 WAT         8.4090   22.0940   17.3410 O      10763 WAT       0.1799
  10764 WAT         8.4090   22.0940   17.5910 O      10764 WAT       0.0737
  10765 WAT         8.4090   22.3440   16.3410 O      10765 WAT       0.0934
  10766 WAT         8.4090   22.3440   16.5910 O      10766 WAT       0.2068
  10767 WAT         8.4090   22.3440   16.8410 O      10767 WAT       0.2967
  10768 WAT         8.4090   22.3440   17.0910 O      10768 WAT       0.2800
  10769 WAT         8.4090   22.3440   17.3410 O      10769 WAT       0.1755
  10770 WAT         8.4090   22.3440   17.5910 O      10770 WAT       0.0730
  10771 WAT         8.4090   22.5940   16.3410 O      10771 WAT       0.0556
  10772 WAT         8.4090   22.5940   16.5910 O      10772 WAT       0.1258
  10773 WAT         8.4090   22.5940   16.8410 O      10773 WAT       0.1824
  10774 WAT         8.4090   22.5940   17.0910 O      10774 WAT       0.1738
  10775 WAT         8.4090   22.5940   17.3410 O      10775 WAT       0.1098
  10776 WAT         8.4090   22.5940   17.5910 O      10776 WAT       0.0454
  10777 WAT         8.4090   22.8440   16.5910 O      10777 WAT       0.0483
  10778 WAT         8.4090   22.8440   16.8410 O      10778 WAT       0.0715
  10779 WAT         8.4090   22.8440   17.0910 O      10779 WAT       0.0685
  10780 WAT         8.4090   23.8440   18.3410 O      10780 WAT       0.0467
  10781 WAT         8.4090   23.8440   18.5910 O      10781 WAT       0.0463
  10782 WAT         8.4090   24.0940   18.3410 O      10782 WAT       0.0590
  10783 WAT         8.4090   24.0940   18.5910 O      10783 WAT       0.0537
  10784 WAT         8.4090   24.3440    4.8410 O      10784 WAT       0.0487
  10785 WAT         8.4090   24.3440    5.0910 O      10785 WAT       0.0504
  10786 WAT         8.4090   24.3440   18.3410 O      10786 WAT       0.0470
  10787 WAT         8.4090   24.5940    4.8410 O      10787 WAT       0.0549
  10788 WAT         8.4090   24.5940    5.0910 O      10788 WAT       0.0553
  10789 WAT         8.4090   24.8440    4.8410 O      10789 WAT       0.0512
  10790 WAT         8.4090   24.8440    5.0910 O      10790 WAT       0.0503
  10791 WAT         8.4090   24.8440    7.0910 O      10791 WAT       0.0551
  10792 WAT         8.4090   24.8440    7.3410 O      10792 WAT       0.0678
  10793 WAT         8.4090   24.8440    7.5910 O      10793 WAT       0.0677
  10794 WAT         8.4090   24.8440    7.8410 O      10794 WAT       0.0535
  10795 WAT         8.4090   25.0940    6.8410 O      10795 WAT       0.0550
  10796 WAT         8.4090   25.0940    7.0910 O      10796 WAT       0.0836
  10797 WAT         8.4090   25.0940    7.3410 O      10797 WAT       0.1076
  10798 WAT         8.4090   25.0940    7.5910 O      10798 WAT       0.1133
  10799 WAT         8.4090   25.0940    7.8410 O      10799 WAT       0.0951
  10800 WAT         8.4090   25.0940    8.0910 O      10800 WAT       0.0625
  10801 WAT         8.4090   25.3440    6.8410 O      10801 WAT       0.0523
  10802 WAT         8.4090   25.3440    7.0910 O      10802 WAT       0.0836
  10803 WAT         8.4090   25.3440    7.3410 O      10803 WAT       0.1139
  10804 WAT         8.4090   25.3440    7.5910 O      10804 WAT       0.1276
  10805 WAT         8.4090   25.3440    7.8410 O      10805 WAT       0.1146
  10806 WAT         8.4090   25.3440    8.0910 O      10806 WAT       0.0808
  10807 WAT         8.4090   25.5940    7.0910 O      10807 WAT       0.0545
  10808 WAT         8.4090   25.5940    7.3410 O      10808 WAT       0.0795
  10809 WAT         8.4090   25.5940    7.5910 O      10809 WAT       0.0957
  10810 WAT         8.4090   25.5940    7.8410 O      10810 WAT       0.0926
  10811 WAT         8.4090   25.5940    8.0910 O      10811 WAT       0.0707
  10812 WAT         8.4090   25.8440    2.5910 O      10812 WAT       0.0476
  10813 WAT         8.4090   25.8440    2.8410 O      10813 WAT       0.0507
  10814 WAT         8.4090   25.8440    3.0910 O      10814 WAT       0.0475
  10815 WAT         8.4090   25.8440    7.5910 O      10815 WAT       0.0469
  10816 WAT         8.4090   25.8440    7.8410 O      10816 WAT       0.0494
  10817 WAT         8.4090   26.0940    2.5910 O      10817 WAT       0.0653
  10818 WAT         8.4090   26.0940    2.8410 O      10818 WAT       0.0717
  10819 WAT         8.4090   26.0940    3.0910 O      10819 WAT       0.0687
  10820 WAT         8.4090   26.0940    3.3410 O      10820 WAT       0.0576
  10821 WAT         8.4090   26.3440    2.5910 O      10821 WAT       0.0811
  10822 WAT         8.4090   26.3440    2.8410 O      10822 WAT       0.0918
  10823 WAT         8.4090   26.3440    3.0910 O      10823 WAT       0.0903
  10824 WAT         8.4090   26.3440    3.3410 O      10824 WAT       0.0771
  10825 WAT         8.4090   26.3440    3.5910 O      10825 WAT       0.0567
  10826 WAT         8.4090   26.5940    2.5910 O      10826 WAT       0.0816
  10827 WAT         8.4090   26.5940    2.8410 O      10827 WAT       0.0949
  10828 WAT         8.4090   26.5940    3.0910 O      10828 WAT       0.0955
  10829 WAT         8.4090   26.5940    3.3410 O      10829 WAT       0.0825
  10830 WAT         8.4090   26.5940    3.5910 O      10830 WAT       0.0602
  10831 WAT         8.4090   26.8440    2.5910 O      10831 WAT       0.0614
  10832 WAT         8.4090   26.8440    2.8410 O      10832 WAT       0.0731
  10833 WAT         8.4090   26.8440    3.0910 O      10833 WAT       0.0750
  10834 WAT         8.4090   26.8440    3.3410 O      10834 WAT       0.0652
  10835 WAT         8.4090   26.8440    3.5910 O      10835 WAT       0.0467
  10836 WAT         8.6590    9.8440   18.5910 O      10836 WAT       0.0474
  10837 WAT         8.6590    9.8440   18.8410 O      10837 WAT       0.0497
  10838 WAT         8.6590   10.0940   18.5910 O      10838 WAT       0.0497
  10839 WAT         8.6590   10.0940   18.8410 O      10839 WAT       0.0526
  10840 WAT         8.6590   10.0940   19.0910 O      10840 WAT       0.0466
  10841 WAT         8.6590   10.3440   18.5910 O      10841 WAT       0.0475
  10842 WAT         8.6590   10.3440   18.8410 O      10842 WAT       0.0500
  10843 WAT         8.6590   13.8440   19.0910 O      10843 WAT       0.0541
  10844 WAT         8.6590   13.8440   19.3410 O      10844 WAT       0.0983
  10845 WAT         8.6590   13.8440   19.5910 O      10845 WAT       0.1217
  10846 WAT         8.6590   13.8440   19.8410 O      10846 WAT       0.0993
  10847 WAT         8.6590   13.8440   20.0910 O      10847 WAT       0.0525
  10848 WAT         8.6590   14.0940   19.0910 O      10848 WAT       0.0950
  10849 WAT         8.6590   14.0940   19.3410 O      10849 WAT       0.1779
  10850 WAT         8.6590   14.0940   19.5910 O      10850 WAT       0.2227
  10851 WAT         8.6590   14.0940   19.8410 O      10851 WAT       0.1835
  10852 WAT         8.6590   14.0940   20.0910 O      10852 WAT       0.0989
  10853 WAT         8.6590   14.3440   19.0910 O      10853 WAT       0.1136
  10854 WAT         8.6590   14.3440   19.3410 O      10854 WAT       0.2131
  10855 WAT         8.6590   14.3440   19.5910 O      10855 WAT       0.2664
  10856 WAT         8.6590   14.3440   19.8410 O      10856 WAT       0.2203
  10857 WAT         8.6590   14.3440   20.0910 O      10857 WAT       0.1201
  10858 WAT         8.6590   14.5940   19.0910 O      10858 WAT       0.0928
  10859 WAT         8.6590   14.5940   19.3410 O      10859 WAT       0.1715
  10860 WAT         8.6590   14.5940   19.5910 O      10860 WAT       0.2119
  10861 WAT         8.6590   14.5940   19.8410 O      10861 WAT       0.1746
  10862 WAT         8.6590   14.5940   20.0910 O      10862 WAT       0.0957
  10863 WAT         8.6590   14.8440   19.0910 O      10863 WAT       0.0526
  10864 WAT         8.6590   14.8440   19.3410 O      10864 WAT       0.0948
  10865 WAT         8.6590   14.8440   19.5910 O      10865 WAT       0.1145
  10866 WAT         8.6590   14.8440   19.8410 O      10866 WAT       0.0930
  10867 WAT         8.6590   14.8440   20.0910 O      10867 WAT       0.0505
  10868 WAT         8.6590   15.5940   14.8410 O      10868 WAT       0.0454
  10869 WAT         8.6590   15.5940   17.0910 O      10869 WAT       0.0671
  10870 WAT         8.6590   15.5940   17.3410 O      10870 WAT       0.0938
  10871 WAT         8.6590   15.5940   17.5910 O      10871 WAT       0.0997
  10872 WAT         8.6590   15.5940   17.8410 O      10872 WAT       0.0781
  10873 WAT         8.6590   15.8440   16.8410 O      10873 WAT       0.0704
  10874 WAT         8.6590   15.8440   17.0910 O      10874 WAT       0.1202
  10875 WAT         8.6590   15.8440   17.3410 O      10875 WAT       0.1666
  10876 WAT         8.6590   15.8440   17.5910 O      10876 WAT       0.1777
  10877 WAT         8.6590   15.8440   17.8410 O      10877 WAT       0.1407
  10878 WAT         8.6590   15.8440   18.0910 O      10878 WAT       0.0808
  10879 WAT         8.6590   15.8440   27.0910 O      10879 WAT       0.0468
  10880 WAT         8.6590   16.0940   16.5910 O      10880 WAT       0.0475
  10881 WAT         8.6590   16.0940   16.8410 O      10881 WAT       0.0887
  10882 WAT         8.6590   16.0940   17.0910 O      10882 WAT       0.1456
  10883 WAT         8.6590   16.0940   17.3410 O      10883 WAT       0.1983
  10884 WAT         8.6590   16.0940   17.5910 O      10884 WAT       0.2113
  10885 WAT         8.6590   16.0940   17.8410 O      10885 WAT       0.1681
  10886 WAT         8.6590   16.0940   18.0910 O      10886 WAT       0.0969
  10887 WAT         8.6590   16.0940   26.8410 O      10887 WAT       0.0687
  10888 WAT         8.6590   16.0940   27.0910 O      10888 WAT       0.0791
  10889 WAT         8.6590   16.0940   27.3410 O      10889 WAT       0.0589
  10890 WAT         8.6590   16.3440   16.8410 O      10890 WAT       0.0765
  10891 WAT         8.6590   16.3440   17.0910 O      10891 WAT       0.1198
  10892 WAT         8.6590   16.3440   17.3410 O      10892 WAT       0.1593
  10893 WAT         8.6590   16.3440   17.5910 O      10893 WAT       0.1684
  10894 WAT         8.6590   16.3440   17.8410 O      10894 WAT       0.1340
  10895 WAT         8.6590   16.3440   18.0910 O      10895 WAT       0.0772
  10896 WAT         8.6590   16.3440   26.8410 O      10896 WAT       0.0757
  10897 WAT         8.6590   16.3440   27.0910 O      10897 WAT       0.0876
  10898 WAT         8.6590   16.3440   27.3410 O      10898 WAT       0.0658
  10899 WAT         8.6590   16.5940   16.8410 O      10899 WAT       0.0453
  10900 WAT         8.6590   16.5940   17.0910 O      10900 WAT       0.0676
  10901 WAT         8.6590   16.5940   17.3410 O      10901 WAT       0.0871
  10902 WAT         8.6590   16.5940   17.5910 O      10902 WAT       0.0908
  10903 WAT         8.6590   16.5940   17.8410 O      10903 WAT       0.0717
  10904 WAT         8.6590   16.5940   26.8410 O      10904 WAT       0.0542
  10905 WAT         8.6590   16.5940   27.0910 O      10905 WAT       0.0628
  10906 WAT         8.6590   16.5940   27.3410 O      10906 WAT       0.0470
  10907 WAT         8.6590   20.5940    7.3410 O      10907 WAT       0.0474
  10908 WAT         8.6590   20.8440    7.0910 O      10908 WAT       0.0462
  10909 WAT         8.6590   20.8440    7.3410 O      10909 WAT       0.0487
  10910 WAT         8.6590   21.0940    7.0910 O      10910 WAT       0.0453
  10911 WAT         8.6590   21.0940    7.3410 O      10911 WAT       0.0458
  10912 WAT         8.6590   21.3440   16.8410 O      10912 WAT       0.0551
  10913 WAT         8.6590   21.3440   17.0910 O      10913 WAT       0.0488
  10914 WAT         8.6590   21.5940   16.3410 O      10914 WAT       0.0644
  10915 WAT         8.6590   21.5940   16.5910 O      10915 WAT       0.1402
  10916 WAT         8.6590   21.5940   16.8410 O      10916 WAT       0.1947
  10917 WAT         8.6590   21.5940   17.0910 O      10917 WAT       0.1759
  10918 WAT         8.6590   21.5940   17.3410 O      10918 WAT       0.1042
  10919 WAT         8.6590   21.8440   16.3410 O      10919 WAT       0.1432
  10920 WAT         8.6590   21.8440   16.5910 O      10920 WAT       0.3095
  10921 WAT         8.6590   21.8440   16.8410 O      10921 WAT       0.4334
  10922 WAT         8.6590   21.8440   17.0910 O      10922 WAT       0.3969
  10923 WAT         8.6590   21.8440   17.3410 O      10923 WAT       0.2404
  10924 WAT         8.6590   21.8440   17.5910 O      10924 WAT       0.0970
  10925 WAT         8.6590   22.0940   16.0910 O      10925 WAT       0.0595
  10926 WAT         8.6590   22.0940   16.3410 O      10926 WAT       0.2034
  10927 WAT         8.6590   22.0940   16.5910 O      10927 WAT       0.4418
  10928 WAT         8.6590   22.0940   16.8410 O      10928 WAT       0.6248
  10929 WAT         8.6590   22.0940   17.0910 O      10929 WAT       0.5798
  10930 WAT         8.6590   22.0940   17.3410 O      10930 WAT       0.3571
  10931 WAT         8.6590   22.0940   17.5910 O      10931 WAT       0.1478
  10932 WAT         8.6590   22.3440   16.0910 O      10932 WAT       0.0545
  10933 WAT         8.6590   22.3440   16.3410 O      10933 WAT       0.1876
  10934 WAT         8.6590   22.3440   16.5910 O      10934 WAT       0.4098
  10935 WAT         8.6590   22.3440   16.8410 O      10935 WAT       0.5844
  10936 WAT         8.6590   22.3440   17.0910 O      10936 WAT       0.5487
  10937 WAT         8.6590   22.3440   17.3410 O      10937 WAT       0.3430
  10938 WAT         8.6590   22.3440   17.5910 O      10938 WAT       0.1443
  10939 WAT         8.6590   22.5940   16.3410 O      10939 WAT       0.1124
  10940 WAT         8.6590   22.5940   16.5910 O      10940 WAT       0.2472
  10941 WAT         8.6590   22.5940   16.8410 O      10941 WAT       0.3547
  10942 WAT         8.6590   22.5940   17.0910 O      10942 WAT       0.3362
  10943 WAT         8.6590   22.5940   17.3410 O      10943 WAT       0.2124
  10944 WAT         8.6590   22.5940   17.5910 O      10944 WAT       0.0897
  10945 WAT         8.6590   22.8440   16.5910 O      10945 WAT       0.0962
  10946 WAT         8.6590   22.8440   16.8410 O      10946 WAT       0.1393
  10947 WAT         8.6590   22.8440   17.0910 O      10947 WAT       0.1326
  10948 WAT         8.6590   22.8440   17.3410 O      10948 WAT       0.0836
  10949 WAT         8.6590   24.5940    7.0910 O      10949 WAT       0.0480
  10950 WAT         8.6590   24.5940    7.3410 O      10950 WAT       0.0578
  10951 WAT         8.6590   24.5940    7.5910 O      10951 WAT       0.0545
  10952 WAT         8.6590   24.8440    6.8410 O      10952 WAT       0.0715
  10953 WAT         8.6590   24.8440    7.0910 O      10953 WAT       0.1109
  10954 WAT         8.6590   24.8440    7.3410 O      10954 WAT       0.1386
  10955 WAT         8.6590   24.8440    7.5910 O      10955 WAT       0.1365
  10956 WAT         8.6590   24.8440    7.8410 O      10956 WAT       0.1039
  10957 WAT         8.6590   24.8440    8.0910 O      10957 WAT       0.0600
  10958 WAT         8.6590   25.0940    6.5910 O      10958 WAT       0.0550
  10959 WAT         8.6590   25.0940    6.8410 O      10959 WAT       0.1069
  10960 WAT         8.6590   25.0940    7.0910 O      10960 WAT       0.1723
  10961 WAT         8.6590   25.0940    7.3410 O      10961 WAT       0.2245
  10962 WAT         8.6590   25.0940    7.5910 O      10962 WAT       0.2324
  10963 WAT         8.6590   25.0940    7.8410 O      10963 WAT       0.1873
  10964 WAT         8.6590   25.0940    8.0910 O      10964 WAT       0.1154
  10965 WAT         8.6590   25.0940    8.3410 O      10965 WAT       0.0536
  10966 WAT         8.6590   25.3440    2.8410 O      10966 WAT       0.0470
  10967 WAT         8.6590   25.3440    3.0910 O      10967 WAT       0.0468
  10968 WAT         8.6590   25.3440    6.5910 O      10968 WAT       0.0519
  10969 WAT         8.6590   25.3440    6.8410 O      10969 WAT       0.1056
  10970 WAT         8.6590   25.3440    7.0910 O      10970 WAT       0.1782
  10971 WAT         8.6590   25.3440    7.3410 O      10971 WAT       0.2441
  10972 WAT         8.6590   25.3440    7.5910 O      10972 WAT       0.2672
  10973 WAT         8.6590   25.3440    7.8410 O      10973 WAT       0.2288
  10974 WAT         8.6590   25.3440    8.0910 O      10974 WAT       0.1507
  10975 WAT         8.6590   25.3440    8.3410 O      10975 WAT       0.0753
  10976 WAT         8.6590   25.5940    2.5910 O      10976 WAT       0.0514
  10977 WAT         8.6590   25.5940    2.8410 O      10977 WAT       0.0558
  10978 WAT         8.6590   25.5940    3.0910 O      10978 WAT       0.0540
  10979 WAT         8.6590   25.5940    3.3410 O      10979 WAT       0.0452
  10980 WAT         8.6590   25.5940    6.8410 O      10980 WAT       0.0678
  10981 WAT         8.6590   25.5940    7.0910 O      10981 WAT       0.1213
  10982 WAT         8.6590   25.5940    7.3410 O      10982 WAT       0.1760
  10983 WAT         8.6590   25.5940    7.5910 O      10983 WAT       0.2048
  10984 WAT         8.6590   25.5940    7.8410 O      10984 WAT       0.1872
  10985 WAT         8.6590   25.5940    8.0910 O      10985 WAT       0.1320
  10986 WAT         8.6590   25.5940    8.3410 O      10986 WAT       0.0711
  10987 WAT         8.6590   25.8440    2.5910 O      10987 WAT       0.0641
  10988 WAT         8.6590   25.8440    2.8410 O      10988 WAT       0.0693
  10989 WAT         8.6590   25.8440    3.0910 O      10989 WAT       0.0649
  10990 WAT         8.6590   25.8440    3.3410 O      10990 WAT       0.0514
  10991 WAT         8.6590   25.8440    7.0910 O      10991 WAT       0.0531
  10992 WAT         8.6590   25.8440    7.3410 O      10992 WAT       0.0829
  10993 WAT         8.6590   25.8440    7.5910 O      10993 WAT       0.1032
  10994 WAT         8.6590   25.8440    7.8410 O      10994 WAT       0.1011
  10995 WAT         8.6590   25.8440    8.0910 O      10995 WAT       0.0766
  10996 WAT         8.6590   26.0940    2.5910 O      10996 WAT       0.0828
  10997 WAT         8.6590   26.0940    2.8410 O      10997 WAT       0.0892
  10998 WAT         8.6590   26.0940    3.0910 O      10998 WAT       0.0815
  10999 WAT         8.6590   26.0940    3.3410 O      10999 WAT       0.0618
  11000 WAT         8.6590   26.3440    2.5910 O      11000 WAT       0.0989
  11001 WAT         8.6590   26.3440    2.8410 O      11001 WAT       0.1066
  11002 WAT         8.6590   26.3440    3.0910 O      11002 WAT       0.0960
  11003 WAT         8.6590   26.3440    3.3410 O      11003 WAT       0.0709
  11004 WAT         8.6590   26.5940    2.5910 O      11004 WAT       0.0968
  11005 WAT         8.6590   26.5940    2.8410 O      11005 WAT       0.1048
  11006 WAT         8.6590   26.5940    3.0910 O      11006 WAT       0.0936
  11007 WAT         8.6590   26.5940    3.3410 O      11007 WAT       0.0682
  11008 WAT         8.6590   26.8440    2.5910 O      11008 WAT       0.0711
  11009 WAT         8.6590   26.8440    2.8410 O      11009 WAT       0.0774
  11010 WAT         8.6590   26.8440    3.0910 O      11010 WAT       0.0690
  11011 WAT         8.6590   26.8440    3.3410 O      11011 WAT       0.0500
  11012 WAT         8.9090    9.8440   18.5910 O      11012 WAT       0.0452
  11013 WAT         8.9090   10.0940   18.3410 O      11013 WAT       0.0457
  11014 WAT         8.9090   10.0940   18.5910 O      11014 WAT       0.0517
  11015 WAT         8.9090   10.0940   18.8410 O      11015 WAT       0.0498
  11016 WAT         8.9090   10.3440   18.3410 O      11016 WAT       0.0469
  11017 WAT         8.9090   10.3440   18.5910 O      11017 WAT       0.0540
  11018 WAT         8.9090   10.3440   18.8410 O      11018 WAT       0.0521
  11019 WAT         8.9090   10.5940   18.5910 O      11019 WAT       0.0515
  11020 WAT         8.9090   10.5940   18.8410 O      11020 WAT       0.0490
  11021 WAT         8.9090   10.8440   18.5910 O      11021 WAT       0.0461
  11022 WAT         8.9090   13.8440   19.0910 O      11022 WAT       0.0599
  11023 WAT         8.9090   13.8440   19.3410 O      11023 WAT       0.1008
  11024 WAT         8.9090   13.8440   19.5910 O      11024 WAT       0.1147
  11025 WAT         8.9090   13.8440   19.8410 O      11025 WAT       0.0851
  11026 WAT         8.9090   14.0940   19.0910 O      11026 WAT       0.1006
  11027 WAT         8.9090   14.0940   19.3410 O      11027 WAT       0.1734
  11028 WAT         8.9090   14.0940   19.5910 O      11028 WAT       0.1979
  11029 WAT         8.9090   14.0940   19.8410 O      11029 WAT       0.1470
  11030 WAT         8.9090   14.0940   20.0910 O      11030 WAT       0.0703
  11031 WAT         8.9090   14.3440   18.8410 O      11031 WAT       0.0453
  11032 WAT         8.9090   14.3440   19.0910 O      11032 WAT       0.1144
  11033 WAT         8.9090   14.3440   19.3410 O      11033 WAT       0.1960
  11034 WAT         8.9090   14.3440   19.5910 O      11034 WAT       0.2214
  11035 WAT         8.9090   14.3440   19.8410 O      11035 WAT       0.1632
  11036 WAT         8.9090   14.3440   20.0910 O      11036 WAT       0.0780
  11037 WAT         8.9090   14.5940   19.0910 O      11037 WAT       0.0885
  11038 WAT         8.9090   14.5940   19.3410 O      11038 WAT       0.1480
  11039 WAT         8.9090   14.5940   19.5910 O      11039 WAT       0.1635
  11040 WAT         8.9090   14.5940   19.8410 O      11040 WAT       0.1184
  11041 WAT         8.9090   14.5940   20.0910 O      11041 WAT       0.0559
  11042 WAT         8.9090   14.8440    8.8410 O      11042 WAT       0.0453
  11043 WAT         8.9090   14.8440    9.0910 O      11043 WAT       0.0470
  11044 WAT         8.9090   14.8440    9.3410 O      11044 WAT       0.0462
  11045 WAT         8.9090   14.8440   12.8410 O      11045 WAT       0.0459
  11046 WAT         8.9090   14.8440   13.0910 O      11046 WAT       0.0459
  11047 WAT         8.9090   14.8440   19.0910 O      11047 WAT       0.0476
  11048 WAT         8.9090   14.8440   19.3410 O      11048 WAT       0.0768
  11049 WAT         8.9090   14.8440   19.5910 O      11049 WAT       0.0817
  11050 WAT         8.9090   14.8440   19.8410 O      11050 WAT       0.0573
  11051 WAT         8.9090   15.0940    8.5910 O      11051 WAT       0.0456
  11052 WAT         8.9090   15.0940    8.8410 O      11052 WAT       0.0478
  11053 WAT         8.9090   15.0940    9.0910 O      11053 WAT       0.0467
  11054 WAT         8.9090   15.0940   12.8410 O      11054 WAT       0.0519
  11055 WAT         8.9090   15.0940   13.0910 O      11055 WAT       0.0539
  11056 WAT         8.9090   15.0940   13.3410 O      11056 WAT       0.0492
  11057 WAT         8.9090   15.3440    8.5910 O      11057 WAT       0.0455
  11058 WAT         8.9090   15.3440   12.8410 O      11058 WAT       0.0504
  11059 WAT         8.9090   15.3440   13.0910 O      11059 WAT       0.0555
  11060 WAT         8.9090   15.3440   13.3410 O      11060 WAT       0.0535
  11061 WAT         8.9090   15.3440   13.5910 O      11061 WAT       0.0456
  11062 WAT         8.9090   15.5940   13.0910 O      11062 WAT       0.0465
  11063 WAT         8.9090   15.5940   13.3410 O      11063 WAT       0.0478
  11064 WAT         8.9090   15.5940   17.3410 O      11064 WAT       0.0563
  11065 WAT         8.9090   15.5940   17.5910 O      11065 WAT       0.0588
  11066 WAT         8.9090   15.5940   17.8410 O      11066 WAT       0.0452
  11067 WAT         8.9090   15.5940   27.0910 O      11067 WAT       0.0494
  11068 WAT         8.9090   15.8440   16.8410 O      11068 WAT       0.0503
  11069 WAT         8.9090   15.8440   17.0910 O      11069 WAT       0.0831
  11070 WAT         8.9090   15.8440   17.3410 O      11070 WAT       0.1125
  11071 WAT         8.9090   15.8440   17.5910 O      11071 WAT       0.1179
  11072 WAT         8.9090   15.8440   17.8410 O      11072 WAT       0.0914
  11073 WAT         8.9090   15.8440   18.0910 O      11073 WAT       0.0510
  11074 WAT         8.9090   15.8440   26.5910 O      11074 WAT       0.0504
  11075 WAT         8.9090   15.8440   26.8410 O      11075 WAT       0.0999
  11076 WAT         8.9090   15.8440   27.0910 O      11076 WAT       0.1275
  11077 WAT         8.9090   15.8440   27.3410 O      11077 WAT       0.1047
  11078 WAT         8.9090   15.8440   27.5910 O      11078 WAT       0.0543
  11079 WAT         8.9090   16.0940   16.8410 O      11079 WAT       0.0719
  11080 WAT         8.9090   16.0940   17.0910 O      11080 WAT       0.1150
  11081 WAT         8.9090   16.0940   17.3410 O      11081 WAT       0.1530
  11082 WAT         8.9090   16.0940   17.5910 O      11082 WAT       0.1595
  11083 WAT         8.9090   16.0940   17.8410 O      11083 WAT       0.1239
  11084 WAT         8.9090   16.0940   18.0910 O      11084 WAT       0.0693
  11085 WAT         8.9090   16.0940   26.5910 O      11085 WAT       0.0835
  11086 WAT         8.9090   16.0940   26.8410 O      11086 WAT       0.1653
  11087 WAT         8.9090   16.0940   27.0910 O      11087 WAT       0.2125
  11088 WAT         8.9090   16.0940   27.3410 O      11088 WAT       0.1765
  11089 WAT         8.9090   16.0940   27.5910 O      11089 WAT       0.0936
  11090 WAT         8.9090   16.3440   16.8410 O      11090 WAT       0.0716
  11091 WAT         8.9090   16.3440   17.0910 O      11091 WAT       0.1099
  11092 WAT         8.9090   16.3440   17.3410 O      11092 WAT       0.1427
  11093 WAT         8.9090   16.3440   17.5910 O      11093 WAT       0.1470
  11094 WAT         8.9090   16.3440   17.8410 O      11094 WAT       0.1137
  11095 WAT         8.9090   16.3440   18.0910 O      11095 WAT       0.0635
  11096 WAT         8.9090   16.3440   26.5910 O      11096 WAT       0.0899
  11097 WAT         8.9090   16.3440   26.8410 O      11097 WAT       0.1786
  11098 WAT         8.9090   16.3440   27.0910 O      11098 WAT       0.2307
  11099 WAT         8.9090   16.3440   27.3410 O      11099 WAT       0.1928
  11100 WAT         8.9090   16.3440   27.5910 O      11100 WAT       0.1030
  11101 WAT         8.9090   16.5940   16.8410 O      11101 WAT       0.0496
  11102 WAT         8.9090   16.5940   17.0910 O      11102 WAT       0.0732
  11103 WAT         8.9090   16.5940   17.3410 O      11103 WAT       0.0923
  11104 WAT         8.9090   16.5940   17.5910 O      11104 WAT       0.0934
  11105 WAT         8.9090   16.5940   17.8410 O      11105 WAT       0.0715
  11106 WAT         8.9090   16.5940   26.5910 O      11106 WAT       0.0623
  11107 WAT         8.9090   16.5940   26.8410 O      11107 WAT       0.1245
  11108 WAT         8.9090   16.5940   27.0910 O      11108 WAT       0.1614
  11109 WAT         8.9090   16.5940   27.3410 O      11109 WAT       0.1352
  11110 WAT         8.9090   16.5940   27.5910 O      11110 WAT       0.0720
  11111 WAT         8.9090   16.8440   26.8410 O      11111 WAT       0.0545
  11112 WAT         8.9090   16.8440   27.0910 O      11112 WAT       0.0711
  11113 WAT         8.9090   16.8440   27.3410 O      11113 WAT       0.0594
  11114 WAT         8.9090   19.5940    7.5910 O      11114 WAT       0.0468
  11115 WAT         8.9090   19.8440    7.3410 O      11115 WAT       0.0503
  11116 WAT         8.9090   19.8440    7.5910 O      11116 WAT       0.0541
  11117 WAT         8.9090   19.8440    7.8410 O      11117 WAT       0.0488
  11118 WAT         8.9090   20.0940    7.0910 O      11118 WAT       0.0499
  11119 WAT         8.9090   20.0940    7.3410 O      11119 WAT       0.0595
  11120 WAT         8.9090   20.0940    7.5910 O      11120 WAT       0.0599
  11121 WAT         8.9090   20.0940    7.8410 O      11121 WAT       0.0496
  11122 WAT         8.9090   20.3440    6.8410 O      11122 WAT       0.0455
  11123 WAT         8.9090   20.3440    7.0910 O      11123 WAT       0.0603
  11124 WAT         8.9090   20.3440    7.3410 O      11124 WAT       0.0681
  11125 WAT         8.9090   20.3440    7.5910 O      11125 WAT       0.0636
  11126 WAT         8.9090   20.3440    7.8410 O      11126 WAT       0.0478
  11127 WAT         8.9090   20.5940    6.8410 O      11127 WAT       0.0545
  11128 WAT         8.9090   20.5940    7.0910 O      11128 WAT       0.0690
  11129 WAT         8.9090   20.5940    7.3410 O      11129 WAT       0.0736
  11130 WAT         8.9090   20.5940    7.5910 O      11130 WAT       0.0637
  11131 WAT         8.9090   20.8440    6.8410 O      11131 WAT       0.0604
  11132 WAT         8.9090   20.8440    7.0910 O      11132 WAT       0.0729
  11133 WAT         8.9090   20.8440    7.3410 O      11133 WAT       0.0737
  11134 WAT         8.9090   20.8440    7.5910 O      11134 WAT       0.0599
  11135 WAT         8.9090   21.0940    6.5910 O      11135 WAT       0.0484
  11136 WAT         8.9090   21.0940    6.8410 O      11136 WAT       0.0619
  11137 WAT         8.9090   21.0940    7.0910 O      11137 WAT       0.0711
  11138 WAT         8.9090   21.0940    7.3410 O      11138 WAT       0.0687
  11139 WAT         8.9090   21.0940    7.5910 O      11139 WAT       0.0530
  11140 WAT         8.9090   21.3440    6.5910 O      11140 WAT       0.0505
  11141 WAT         8.9090   21.3440    6.8410 O      11141 WAT       0.0600
  11142 WAT         8.9090   21.3440    7.0910 O      11142 WAT       0.0651
  11143 WAT         8.9090   21.3440    7.3410 O      11143 WAT       0.0599
  11144 WAT         8.9090   21.3440   16.5910 O      11144 WAT       0.0521
  11145 WAT         8.9090   21.3440   16.8410 O      11145 WAT       0.0723
  11146 WAT         8.9090   21.3440   17.0910 O      11146 WAT       0.0642
  11147 WAT         8.9090   21.5940    6.5910 O      11147 WAT       0.0502
  11148 WAT         8.9090   21.5940    6.8410 O      11148 WAT       0.0558
  11149 WAT         8.9090   21.5940    7.0910 O      11149 WAT       0.0568
  11150 WAT         8.9090   21.5940    7.3410 O      11150 WAT       0.0496
  11151 WAT         8.9090   21.5940   16.3410 O      11151 WAT       0.0838
  11152 WAT         8.9090   21.5940   16.5910 O      11152 WAT       0.1807
  11153 WAT         8.9090   21.5940   16.8410 O      11153 WAT       0.2501
  11154 WAT         8.9090   21.5940   17.0910 O      11154 WAT       0.2254
  11155 WAT         8.9090   21.5940   17.3410 O      11155 WAT       0.1335
  11156 WAT         8.9090   21.5940   17.5910 O      11156 WAT       0.0516
  11157 WAT         8.9090   21.8440    6.5910 O      11157 WAT       0.0458
  11158 WAT         8.9090   21.8440    6.8410 O      11158 WAT       0.0488
  11159 WAT         8.9090   21.8440    7.0910 O      11159 WAT       0.0472
  11160 WAT         8.9090   21.8440   16.0910 O      11160 WAT       0.0539
  11161 WAT         8.9090   21.8440   16.3410 O      11161 WAT       0.1833
  11162 WAT         8.9090   21.8440   16.5910 O      11162 WAT       0.3942
  11163 WAT         8.9090   21.8440   16.8410 O      11163 WAT       0.5500
  11164 WAT         8.9090   21.8440   17.0910 O      11164 WAT       0.5019
  11165 WAT         8.9090   21.8440   17.3410 O      11165 WAT       0.3029
  11166 WAT         8.9090   21.8440   17.5910 O      11166 WAT       0.1223
  11167 WAT         8.9090   22.0940   16.0910 O      11167 WAT       0.0765
  11168 WAT         8.9090   22.0940   16.3410 O      11168 WAT       0.2578
  11169 WAT         8.9090   22.0940   16.5910 O      11169 WAT       0.5567
  11170 WAT         8.9090   22.0940   16.8410 O      11170 WAT       0.7832
  11171 WAT         8.9090   22.0940   17.0910 O      11171 WAT       0.7232
  11172 WAT         8.9090   22.0940   17.3410 O      11172 WAT       0.4433
  11173 WAT         8.9090   22.0940   17.5910 O      11173 WAT       0.1829
  11174 WAT         8.9090   22.0940   17.8410 O      11174 WAT       0.0501
  11175 WAT         8.9090   22.3440   16.0910 O      11175 WAT       0.0697
  11176 WAT         8.9090   22.3440   16.3410 O      11176 WAT       0.2357
  11177 WAT         8.9090   22.3440   16.5910 O      11177 WAT       0.5106
  11178 WAT         8.9090   22.3440   16.8410 O      11178 WAT       0.7234
  11179 WAT         8.9090   22.3440   17.0910 O      11179 WAT       0.6749
  11180 WAT         8.9090   22.3440   17.3410 O      11180 WAT       0.4194
  11181 WAT         8.9090   22.3440   17.5910 O      11181 WAT       0.1759
  11182 WAT         8.9090   22.3440   17.8410 O      11182 WAT       0.0490
  11183 WAT         8.9090   22.5940   16.3410 O      11183 WAT       0.1403
  11184 WAT         8.9090   22.5940   16.5910 O      11184 WAT       0.3049
  11185 WAT         8.9090   22.5940   16.8410 O      11185 WAT       0.4337
  11186 WAT         8.9090   22.5940   17.0910 O      11186 WAT       0.4078
  11187 WAT         8.9090   22.5940   17.3410 O      11187 WAT       0.2561
  11188 WAT         8.9090   22.5940   17.5910 O      11188 WAT       0.1081
  11189 WAT         8.9090   22.8440   16.3410 O      11189 WAT       0.0532
  11190 WAT         8.9090   22.8440   16.5910 O      11190 WAT       0.1180
  11191 WAT         8.9090   22.8440   16.8410 O      11191 WAT       0.1686
  11192 WAT         8.9090   22.8440   17.0910 O      11192 WAT       0.1591
  11193 WAT         8.9090   22.8440   17.3410 O      11193 WAT       0.0999
  11194 WAT         8.9090   24.5940    6.8410 O      11194 WAT       0.0512
  11195 WAT         8.9090   24.5940    7.0910 O      11195 WAT       0.0786
  11196 WAT         8.9090   24.5940    7.3410 O      11196 WAT       0.0938
  11197 WAT         8.9090   24.5940    7.5910 O      11197 WAT       0.0858
  11198 WAT         8.9090   24.5940    7.8410 O      11198 WAT       0.0591
  11199 WAT         8.9090   24.8440    3.0910 O      11199 WAT       0.0475
  11200 WAT         8.9090   24.8440    3.3410 O      11200 WAT       0.0515
  11201 WAT         8.9090   24.8440    3.5910 O      11201 WAT       0.0478
  11202 WAT         8.9090   24.8440    6.5910 O      11202 WAT       0.0561
  11203 WAT         8.9090   24.8440    6.8410 O      11203 WAT       0.1136
  11204 WAT         8.9090   24.8440    7.0910 O      11204 WAT       0.1809
  11205 WAT         8.9090   24.8440    7.3410 O      11205 WAT       0.2245
  11206 WAT         8.9090   24.8440    7.5910 O      11206 WAT       0.2149
  11207 WAT         8.9090   24.8440    7.8410 O      11207 WAT       0.1569
  11208 WAT         8.9090   24.8440    8.0910 O      11208 WAT       0.0859
  11209 WAT         8.9090   25.0940    2.8410 O      11209 WAT       0.0479
  11210 WAT         8.9090   25.0940    3.0910 O      11210 WAT       0.0540
  11211 WAT         8.9090   25.0940    3.3410 O      11211 WAT       0.0553
  11212 WAT         8.9090   25.0940    3.5910 O      11212 WAT       0.0478
  11213 WAT         8.9090   25.0940    6.5910 O      11213 WAT       0.0819
  11214 WAT         8.9090   25.0940    6.8410 O      11214 WAT       0.1724
  11215 WAT         8.9090   25.0940    7.0910 O      11215 WAT       0.2849
  11216 WAT         8.9090   25.0940    7.3410 O      11216 WAT       0.3681
  11217 WAT         8.9090   25.0940    7.5910 O      11217 WAT       0.3698
  11218 WAT         8.9090   25.0940    7.8410 O      11218 WAT       0.2854
  11219 WAT         8.9090   25.0940    8.0910 O      11219 WAT       0.1666
  11220 WAT         8.9090   25.0940    8.3410 O      11220 WAT       0.0724
  11221 WAT         8.9090   25.3440    2.5910 O      11221 WAT       0.0456
  11222 WAT         8.9090   25.3440    2.8410 O      11222 WAT       0.0526
  11223 WAT         8.9090   25.3440    3.0910 O      11223 WAT       0.0569
  11224 WAT         8.9090   25.3440    3.3410 O      11224 WAT       0.0547
  11225 WAT         8.9090   25.3440    6.5910 O      11225 WAT       0.0794
  11226 WAT         8.9090   25.3440    6.8410 O      11226 WAT       0.1742
  11227 WAT         8.9090   25.3440    7.0910 O      11227 WAT       0.3002
  11228 WAT         8.9090   25.3440    7.3410 O      11228 WAT       0.4064
  11229 WAT         8.9090   25.3440    7.5910 O      11229 WAT       0.4303
  11230 WAT         8.9090   25.3440    7.8410 O      11230 WAT       0.3520
  11231 WAT         8.9090   25.3440    8.0910 O      11231 WAT       0.2188
  11232 WAT         8.9090   25.3440    8.3410 O      11232 WAT       0.1020
  11233 WAT         8.9090   25.5940    2.5910 O      11233 WAT       0.0489
  11234 WAT         8.9090   25.5940    2.8410 O      11234 WAT       0.0560
  11235 WAT         8.9090   25.5940    3.0910 O      11235 WAT       0.0579
  11236 WAT         8.9090   25.5940    3.3410 O      11236 WAT       0.0516
  11237 WAT         8.9090   25.5940    6.5910 O      11237 WAT       0.0499
  11238 WAT         8.9090   25.5940    6.8410 O      11238 WAT       0.1152
  11239 WAT         8.9090   25.5940    7.0910 O      11239 WAT       0.2085
  11240 WAT         8.9090   25.5940    7.3410 O      11240 WAT       0.2974
  11241 WAT         8.9090   25.5940    7.5910 O      11241 WAT       0.3336
  11242 WAT         8.9090   25.5940    7.8410 O      11242 WAT       0.2901
  11243 WAT         8.9090   25.5940    8.0910 O      11243 WAT       0.1925
  11244 WAT         8.9090   25.5940    8.3410 O      11244 WAT       0.0963
  11245 WAT         8.9090   25.8440    2.5910 O      11245 WAT       0.0557
  11246 WAT         8.9090   25.8440    2.8410 O      11246 WAT       0.0625
  11247 WAT         8.9090   25.8440    3.0910 O      11247 WAT       0.0611
  11248 WAT         8.9090   25.8440    3.3410 O      11248 WAT       0.0499
  11249 WAT         8.9090   25.8440    6.8410 O      11249 WAT       0.0486
  11250 WAT         8.9090   25.8440    7.0910 O      11250 WAT       0.0941
  11251 WAT         8.9090   25.8440    7.3410 O      11251 WAT       0.1427
  11252 WAT         8.9090   25.8440    7.5910 O      11252 WAT       0.1702
  11253 WAT         8.9090   25.8440    7.8410 O      11253 WAT       0.1579
  11254 WAT         8.9090   25.8440    8.0910 O      11254 WAT       0.1119
  11255 WAT         8.9090   25.8440    8.3410 O      11255 WAT       0.0601
  11256 WAT         8.9090   26.0940    2.5910 O      11256 WAT       0.0681
  11257 WAT         8.9090   26.0940    2.8410 O      11257 WAT       0.0744
  11258 WAT         8.9090   26.0940    3.0910 O      11258 WAT       0.0685
  11259 WAT         8.9090   26.0940    3.3410 O      11259 WAT       0.0513
  11260 WAT         8.9090   26.0940    7.5910 O      11260 WAT       0.0558
  11261 WAT         8.9090   26.0940    7.8410 O      11261 WAT       0.0555
  11262 WAT         8.9090   26.3440    2.5910 O      11262 WAT       0.0794
  11263 WAT         8.9090   26.3440    2.8410 O      11263 WAT       0.0852
  11264 WAT         8.9090   26.3440    3.0910 O      11264 WAT       0.0749
  11265 WAT         8.9090   26.3440    3.3410 O      11265 WAT       0.0525
  11266 WAT         8.9090   26.5940    2.5910 O      11266 WAT       0.0772
  11267 WAT         8.9090   26.5940    2.8410 O      11267 WAT       0.0818
  11268 WAT         8.9090   26.5940    3.0910 O      11268 WAT       0.0698
  11269 WAT         8.9090   26.5940    3.3410 O      11269 WAT       0.0467
  11270 WAT         8.9090   26.8440    2.5910 O      11270 WAT       0.0565
  11271 WAT         8.9090   26.8440    2.8410 O      11271 WAT       0.0596
  11272 WAT         8.9090   26.8440    3.0910 O      11272 WAT       0.0498
  11273 WAT         9.1590   10.0940   18.3410 O      11273 WAT       0.0522
  11274 WAT         9.1590   10.0940   18.5910 O      11274 WAT       0.0549
  11275 WAT         9.1590   10.0940   18.8410 O      11275 WAT       0.0480
  11276 WAT         9.1590   10.3440   18.0910 O      11276 WAT       0.0465
  11277 WAT         9.1590   10.3440   18.3410 O      11277 WAT       0.0572
  11278 WAT         9.1590   10.3440   18.5910 O      11278 WAT       0.0612
  11279 WAT         9.1590   10.3440   18.8410 O      11279 WAT       0.0543
  11280 WAT         9.1590   10.5940   18.0910 O      11280 WAT       0.0465
  11281 WAT         9.1590   10.5940   18.3410 O      11281 WAT       0.0579
  11282 WAT         9.1590   10.5940   18.5910 O      11282 WAT       0.0623
  11283 WAT         9.1590   10.5940   18.8410 O      11283 WAT       0.0553
  11284 WAT         9.1590   10.8440   18.3410 O      11284 WAT       0.0561
  11285 WAT         9.1590   10.8440   18.5910 O      11285 WAT       0.0597
  11286 WAT         9.1590   10.8440   18.8410 O      11286 WAT       0.0520
  11287 WAT         9.1590   11.0940   18.3410 O      11287 WAT       0.0557
  11288 WAT         9.1590   11.0940   18.5910 O      11288 WAT       0.0575
  11289 WAT         9.1590   11.0940   18.8410 O      11289 WAT       0.0478
  11290 WAT         9.1590   11.3440   18.0910 O      11290 WAT       0.0494
  11291 WAT         9.1590   11.3440   18.3410 O      11291 WAT       0.0598
  11292 WAT         9.1590   11.3440   18.5910 O      11292 WAT       0.0588
  11293 WAT         9.1590   11.3440   18.8410 O      11293 WAT       0.0456
  11294 WAT         9.1590   11.5940   18.0910 O      11294 WAT       0.0574
  11295 WAT         9.1590   11.5940   18.3410 O      11295 WAT       0.0668
  11296 WAT         9.1590   11.5940   18.5910 O      11296 WAT       0.0613
  11297 WAT         9.1590   11.8440   17.8410 O      11297 WAT       0.0462
  11298 WAT         9.1590   11.8440   18.0910 O      11298 WAT       0.0637
  11299 WAT         9.1590   11.8440   18.3410 O      11299 WAT       0.0704
  11300 WAT         9.1590   11.8440   18.5910 O      11300 WAT       0.0603
  11301 WAT         9.1590   12.0940   17.8410 O      11301 WAT       0.0484
  11302 WAT         9.1590   12.0940   18.0910 O      11302 WAT       0.0635
  11303 WAT         9.1590   12.0940   18.3410 O      11303 WAT       0.0667
  11304 WAT         9.1590   12.0940   18.5910 O      11304 WAT       0.0539
  11305 WAT         9.1590   12.3440   17.8410 O      11305 WAT       0.0463
  11306 WAT         9.1590   12.3440   18.0910 O      11306 WAT       0.0574
  11307 WAT         9.1590   12.3440   18.3410 O      11307 WAT       0.0578
  11308 WAT         9.1590   12.3440   18.5910 O      11308 WAT       0.0453
  11309 WAT         9.1590   12.5940   18.0910 O      11309 WAT       0.0497
  11310 WAT         9.1590   12.5940   18.3410 O      11310 WAT       0.0488
  11311 WAT         9.1590   13.8440   19.0910 O      11311 WAT       0.0534
  11312 WAT         9.1590   13.8440   19.3410 O      11312 WAT       0.0835
  11313 WAT         9.1590   13.8440   19.5910 O      11313 WAT       0.0889
  11314 WAT         9.1590   13.8440   19.8410 O      11314 WAT       0.0613
  11315 WAT         9.1590   14.0940   19.0910 O      11315 WAT       0.0869
  11316 WAT         9.1590   14.0940   19.3410 O      11316 WAT       0.1397
  11317 WAT         9.1590   14.0940   19.5910 O      11317 WAT       0.1484
  11318 WAT         9.1590   14.0940   19.8410 O      11318 WAT       0.1018
  11319 WAT         9.1590   14.3440   19.0910 O      11319 WAT       0.0962
  11320 WAT         9.1590   14.3440   19.3410 O      11320 WAT       0.1533
  11321 WAT         9.1590   14.3440   19.5910 O      11321 WAT       0.1601
  11322 WAT         9.1590   14.3440   19.8410 O      11322 WAT       0.1080
  11323 WAT         9.1590   14.3440   20.0910 O      11323 WAT       0.0464
  11324 WAT         9.1590   14.5940    9.0910 O      11324 WAT       0.0455
  11325 WAT         9.1590   14.5940    9.3410 O      11325 WAT       0.0458
  11326 WAT         9.1590   14.5940    9.5910 O      11326 WAT       0.0451
  11327 WAT         9.1590   14.5940   12.8410 O      11327 WAT       0.0465
  11328 WAT         9.1590   14.5940   13.0910 O      11328 WAT       0.0478
  11329 WAT         9.1590   14.5940   19.0910 O      11329 WAT       0.0727
  11330 WAT         9.1590   14.5940   19.3410 O      11330 WAT       0.1125
  11331 WAT         9.1590   14.5940   19.5910 O      11331 WAT       0.1137
  11332 WAT         9.1590   14.5940   19.8410 O      11332 WAT       0.0744
  11333 WAT         9.1590   14.8440    8.5910 O      11333 WAT       0.0463
  11334 WAT         9.1590   14.8440    8.8410 O      11334 WAT       0.0493
  11335 WAT         9.1590   14.8440    9.0910 O      11335 WAT       0.0496
  11336 WAT         9.1590   14.8440    9.3410 O      11336 WAT       0.0477
  11337 WAT         9.1590   14.8440   12.5910 O      11337 WAT       0.0488
  11338 WAT         9.1590   14.8440   12.8410 O      11338 WAT       0.0582
  11339 WAT         9.1590   14.8440   13.0910 O      11339 WAT       0.0613
  11340 WAT         9.1590   14.8440   13.3410 O      11340 WAT       0.0558
  11341 WAT         9.1590   14.8440   19.3410 O      11341 WAT       0.0571
  11342 WAT         9.1590   14.8440   19.5910 O      11342 WAT       0.0549
  11343 WAT         9.1590   15.0940    8.3410 O      11343 WAT       0.0452
  11344 WAT         9.1590   15.0940    8.5910 O      11344 WAT       0.0493
  11345 WAT         9.1590   15.0940    8.8410 O      11345 WAT       0.0500
  11346 WAT         9.1590   15.0940    9.0910 O      11346 WAT       0.0472
  11347 WAT         9.1590   15.0940   12.5910 O      11347 WAT       0.0511
  11348 WAT         9.1590   15.0940   12.8410 O      11348 WAT       0.0649
  11349 WAT         9.1590   15.0940   13.0910 O      11349 WAT       0.0717
  11350 WAT         9.1590   15.0940   13.3410 O      11350 WAT       0.0679
  11351 WAT         9.1590   15.0940   13.5910 O      11351 WAT       0.0553
  11352 WAT         9.1590   15.3440    8.3410 O      11352 WAT       0.0463
  11353 WAT         9.1590   15.3440    8.5910 O      11353 WAT       0.0472
  11354 WAT         9.1590   15.3440   12.8410 O      11354 WAT       0.0605
  11355 WAT         9.1590   15.3440   13.0910 O      11355 WAT       0.0709
  11356 WAT         9.1590   15.3440   13.3410 O      11356 WAT       0.0706
  11357 WAT         9.1590   15.3440   13.5910 O      11357 WAT       0.0602
  11358 WAT         9.1590   15.3440   13.8410 O      11358 WAT       0.0456
  11359 WAT         9.1590   15.5940   13.0910 O      11359 WAT       0.0554
  11360 WAT         9.1590   15.5940   13.3410 O      11360 WAT       0.0582
  11361 WAT         9.1590   15.5940   13.5910 O      11361 WAT       0.0523
  11362 WAT         9.1590   15.5940   26.8410 O      11362 WAT       0.0730
  11363 WAT         9.1590   15.5940   27.0910 O      11363 WAT       0.1015
  11364 WAT         9.1590   15.5940   27.3410 O      11364 WAT       0.0894
  11365 WAT         9.1590   15.5940   27.5910 O      11365 WAT       0.0489
  11366 WAT         9.1590   15.8440   17.0910 O      11366 WAT       0.0476
  11367 WAT         9.1590   15.8440   17.3410 O      11367 WAT       0.0627
  11368 WAT         9.1590   15.8440   17.5910 O      11368 WAT       0.0639
  11369 WAT         9.1590   15.8440   17.8410 O      11369 WAT       0.0481
  11370 WAT         9.1590   15.8440   26.5910 O      11370 WAT       0.0844
  11371 WAT         9.1590   15.8440   26.8410 O      11371 WAT       0.1848
  11372 WAT         9.1590   15.8440   27.0910 O      11372 WAT       0.2583
  11373 WAT         9.1590   15.8440   27.3410 O      11373 WAT       0.2305
  11374 WAT         9.1590   15.8440   27.5910 O      11374 WAT       0.1303
  11375 WAT         9.1590   15.8440   27.8410 O      11375 WAT       0.0452
  11376 WAT         9.1590   16.0940    7.8410 O      11376 WAT       0.0456
  11377 WAT         9.1590   16.0940   16.8410 O      11377 WAT       0.0481
  11378 WAT         9.1590   16.0940   17.0910 O      11378 WAT       0.0755
  11379 WAT         9.1590   16.0940   17.3410 O      11379 WAT       0.0980
  11380 WAT         9.1590   16.0940   17.5910 O      11380 WAT       0.0993
  11381 WAT         9.1590   16.0940   17.8410 O      11381 WAT       0.0749
  11382 WAT         9.1590   16.0940   26.5910 O      11382 WAT       0.1377
  11383 WAT         9.1590   16.0940   26.8410 O      11383 WAT       0.3018
  11384 WAT         9.1590   16.0940   27.0910 O      11384 WAT       0.4257
  11385 WAT         9.1590   16.0940   27.3410 O      11385 WAT       0.3837
  11386 WAT         9.1590   16.0940   27.5910 O      11386 WAT       0.2192
  11387 WAT         9.1590   16.0940   27.8410 O      11387 WAT       0.0783
  11388 WAT         9.1590   16.3440   16.8410 O      11388 WAT       0.0547
  11389 WAT         9.1590   16.3440   17.0910 O      11389 WAT       0.0838
  11390 WAT         9.1590   16.3440   17.3410 O      11390 WAT       0.1068
  11391 WAT         9.1590   16.3440   17.5910 O      11391 WAT       0.1070
  11392 WAT         9.1590   16.3440   17.8410 O      11392 WAT       0.0805
  11393 WAT         9.1590   16.3440   26.5910 O      11393 WAT       0.1446
  11394 WAT         9.1590   16.3440   26.8410 O      11394 WAT       0.3185
  11395 WAT         9.1590   16.3440   27.0910 O      11395 WAT       0.4523
  11396 WAT         9.1590   16.3440   27.3410 O      11396 WAT       0.4108
  11397 WAT         9.1590   16.3440   27.5910 O      11397 WAT       0.2365
  11398 WAT         9.1590   16.3440   27.8410 O      11398 WAT       0.0852
  11399 WAT         9.1590   16.5940   17.0910 O      11399 WAT       0.0653
  11400 WAT         9.1590   16.5940   17.3410 O      11400 WAT       0.0817
  11401 WAT         9.1590   16.5940   17.5910 O      11401 WAT       0.0808
  11402 WAT         9.1590   16.5940   17.8410 O      11402 WAT       0.0606
  11403 WAT         9.1590   16.5940   26.5910 O      11403 WAT       0.0969
  11404 WAT         9.1590   16.5940   26.8410 O      11404 WAT       0.2153
  11405 WAT         9.1590   16.5940   27.0910 O      11405 WAT       0.3072
  11406 WAT         9.1590   16.5940   27.3410 O      11406 WAT       0.2806
  11407 WAT         9.1590   16.5940   27.5910 O      11407 WAT       0.1624
  11408 WAT         9.1590   16.5940   27.8410 O      11408 WAT       0.0581
  11409 WAT         9.1590   16.8440   26.8410 O      11409 WAT       0.0916
  11410 WAT         9.1590   16.8440   27.0910 O      11410 WAT       0.1320
  11411 WAT         9.1590   16.8440   27.3410 O      11411 WAT       0.1210
  11412 WAT         9.1590   16.8440   27.5910 O      11412 WAT       0.0697
  11413 WAT         9.1590   19.0940    7.3410 O      11413 WAT       0.0465
  11414 WAT         9.1590   19.0940    7.5910 O      11414 WAT       0.0541
  11415 WAT         9.1590   19.0940    7.8410 O      11415 WAT       0.0512
  11416 WAT         9.1590   19.3440    7.3410 O      11416 WAT       0.0588
  11417 WAT         9.1590   19.3440    7.5910 O      11417 WAT       0.0681
  11418 WAT         9.1590   19.3440    7.8410 O      11418 WAT       0.0649
  11419 WAT         9.1590   19.3440    8.0910 O      11419 WAT       0.0486
  11420 WAT         9.1590   19.5940    7.0910 O      11420 WAT       0.0527
  11421 WAT         9.1590   19.5940    7.3410 O      11421 WAT       0.0678
  11422 WAT         9.1590   19.5940    7.5910 O      11422 WAT       0.0757
  11423 WAT         9.1590   19.5940    7.8410 O      11423 WAT       0.0703
  11424 WAT         9.1590   19.5940    8.0910 O      11424 WAT       0.0520
  11425 WAT         9.1590   19.8440    7.0910 O      11425 WAT       0.0599
  11426 WAT         9.1590   19.8440    7.3410 O      11426 WAT       0.0733
  11427 WAT         9.1590   19.8440    7.5910 O      11427 WAT       0.0772
  11428 WAT         9.1590   19.8440    7.8410 O      11428 WAT       0.0676
  11429 WAT         9.1590   19.8440    8.0910 O      11429 WAT       0.0476
  11430 WAT         9.1590   20.0940    6.8410 O      11430 WAT       0.0496
  11431 WAT         9.1590   20.0940    7.0910 O      11431 WAT       0.0663
  11432 WAT         9.1590   20.0940    7.3410 O      11432 WAT       0.0770
  11433 WAT         9.1590   20.0940    7.5910 O      11433 WAT       0.0755
  11434 WAT         9.1590   20.0940    7.8410 O      11434 WAT       0.0606
  11435 WAT         9.1590   20.3440    6.8410 O      11435 WAT       0.0570
  11436 WAT         9.1590   20.3440    7.0910 O      11436 WAT       0.0728
  11437 WAT         9.1590   20.3440    7.3410 O      11437 WAT       0.0798
  11438 WAT         9.1590   20.3440    7.5910 O      11438 WAT       0.0724
  11439 WAT         9.1590   20.3440    7.8410 O      11439 WAT       0.0526
  11440 WAT         9.1590   20.5940    6.5910 O      11440 WAT       0.0470
  11441 WAT         9.1590   20.5940    6.8410 O      11441 WAT       0.0645
  11442 WAT         9.1590   20.5940    7.0910 O      11442 WAT       0.0784
  11443 WAT         9.1590   20.5940    7.3410 O      11443 WAT       0.0808
  11444 WAT         9.1590   20.5940    7.5910 O      11444 WAT       0.0677
  11445 WAT         9.1590   20.8440    6.5910 O      11445 WAT       0.0545
  11446 WAT         9.1590   20.8440    6.8410 O      11446 WAT       0.0701
  11447 WAT         9.1590   20.8440    7.0910 O      11447 WAT       0.0808
  11448 WAT         9.1590   20.8440    7.3410 O      11448 WAT       0.0786
  11449 WAT         9.1590   20.8440    7.5910 O      11449 WAT       0.0615
  11450 WAT         9.1590   21.0940    6.0910 O      11450 WAT       0.0462
  11451 WAT         9.1590   21.0940    6.3410 O      11451 WAT       0.0525
  11452 WAT         9.1590   21.0940    6.5910 O      11452 WAT       0.0621
  11453 WAT         9.1590   21.0940    6.8410 O      11453 WAT       0.0732
  11454 WAT         9.1590   21.0940    7.0910 O      11454 WAT       0.0794
  11455 WAT         9.1590   21.0940    7.3410 O      11455 WAT       0.0733
  11456 WAT         9.1590   21.0940    7.5910 O      11456 WAT       0.0541
  11457 WAT         9.1590   21.3440    5.8410 O      11457 WAT       0.0542
  11458 WAT         9.1590   21.3440    6.0910 O      11458 WAT       0.0610
  11459 WAT         9.1590   21.3440    6.3410 O      11459 WAT       0.0653
  11460 WAT         9.1590   21.3440    6.5910 O      11460 WAT       0.0700
  11461 WAT         9.1590   21.3440    6.8410 O      11461 WAT       0.0751
  11462 WAT         9.1590   21.3440    7.0910 O      11462 WAT       0.0755
  11463 WAT         9.1590   21.3440    7.3410 O      11463 WAT       0.0656
  11464 WAT         9.1590   21.3440    7.5910 O      11464 WAT       0.0458
  11465 WAT         9.1590   21.3440   16.8410 O      11465 WAT       0.0581
  11466 WAT         9.1590   21.3440   17.0910 O      11466 WAT       0.0513
  11467 WAT         9.1590   21.5940    5.5910 O      11467 WAT       0.0475
  11468 WAT         9.1590   21.5940    5.8410 O      11468 WAT       0.0608
  11469 WAT         9.1590   21.5940    6.0910 O      11469 WAT       0.0703
  11470 WAT         9.1590   21.5940    6.3410 O      11470 WAT       0.0747
  11471 WAT         9.1590   21.5940    6.5910 O      11471 WAT       0.0759
  11472 WAT         9.1590   21.5940    6.8410 O      11472 WAT       0.0753
  11473 WAT         9.1590   21.5940    7.0910 O      11473 WAT       0.0701
  11474 WAT         9.1590   21.5940    7.3410 O      11474 WAT       0.0568
  11475 WAT         9.1590   21.5940   16.3410 O      11475 WAT       0.0674
  11476 WAT         9.1590   21.5940   16.5910 O      11476 WAT       0.1455
  11477 WAT         9.1590   21.5940   16.8410 O      11477 WAT       0.2009
  11478 WAT         9.1590   21.5940   17.0910 O      11478 WAT       0.1804
  11479 WAT         9.1590   21.5940   17.3410 O      11479 WAT       0.1061
  11480 WAT         9.1590   21.8440    5.8410 O      11480 WAT       0.0557
  11481 WAT         9.1590   21.8440    6.0910 O      11481 WAT       0.0674
  11482 WAT         9.1590   21.8440    6.3410 O      11482 WAT       0.0736
  11483 WAT         9.1590   21.8440    6.5910 O      11483 WAT       0.0743
  11484 WAT         9.1590   21.8440    6.8410 O      11484 WAT       0.0707
  11485 WAT         9.1590   21.8440    7.0910 O      11485 WAT       0.0620
  11486 WAT         9.1590   21.8440    7.3410 O      11486 WAT       0.0471
  11487 WAT         9.1590   21.8440   16.3410 O      11487 WAT       0.1473
  11488 WAT         9.1590   21.8440   16.5910 O      11488 WAT       0.3156
  11489 WAT         9.1590   21.8440   16.8410 O      11489 WAT       0.4381
  11490 WAT         9.1590   21.8440   17.0910 O      11490 WAT       0.3977
  11491 WAT         9.1590   21.8440   17.3410 O      11491 WAT       0.2387
  11492 WAT         9.1590   21.8440   17.5910 O      11492 WAT       0.0954
  11493 WAT         9.1590   22.0940    6.0910 O      11493 WAT       0.0539
  11494 WAT         9.1590   22.0940    6.3410 O      11494 WAT       0.0610
  11495 WAT         9.1590   22.0940    6.5910 O      11495 WAT       0.0624
  11496 WAT         9.1590   22.0940    6.8410 O      11496 WAT       0.0583
  11497 WAT         9.1590   22.0940    7.0910 O      11497 WAT       0.0490
  11498 WAT         9.1590   22.0940   16.0910 O      11498 WAT       0.0611
  11499 WAT         9.1590   22.0940   16.3410 O      11499 WAT       0.2058
  11500 WAT         9.1590   22.0940   16.5910 O      11500 WAT       0.4417
  11501 WAT         9.1590   22.0940   16.8410 O      11501 WAT       0.6174
  11502 WAT         9.1590   22.0940   17.0910 O      11502 WAT       0.5665
  11503 WAT         9.1590   22.0940   17.3410 O      11503 WAT       0.3449
  11504 WAT         9.1590   22.0940   17.5910 O      11504 WAT       0.1412
  11505 WAT         9.1590   22.3440    6.5910 O      11505 WAT       0.0450
  11506 WAT         9.1590   22.3440   14.0910 O      11506 WAT       0.0455
  11507 WAT         9.1590   22.3440   16.0910 O      11507 WAT       0.0554
  11508 WAT         9.1590   22.3440   16.3410 O      11508 WAT       0.1868
  11509 WAT         9.1590   22.3440   16.5910 O      11509 WAT       0.4015
  11510 WAT         9.1590   22.3440   16.8410 O      11510 WAT       0.5640
  11511 WAT         9.1590   22.3440   17.0910 O      11511 WAT       0.5221
  11512 WAT         9.1590   22.3440   17.3410 O      11512 WAT       0.3219
  11513 WAT         9.1590   22.3440   17.5910 O      11513 WAT       0.1337
  11514 WAT         9.1590   22.5940   16.3410 O      11514 WAT       0.1102
  11515 WAT         9.1590   22.5940   16.5910 O      11515 WAT       0.2375
  11516 WAT         9.1590   22.5940   16.8410 O      11516 WAT       0.3344
  11517 WAT         9.1590   22.5940   17.0910 O      11517 WAT       0.3115
  11518 WAT         9.1590   22.5940   17.3410 O      11518 WAT       0.1938
  11519 WAT         9.1590   22.5940   17.5910 O      11519 WAT       0.0807
  11520 WAT         9.1590   22.8440    2.5910 O      11520 WAT       0.0464
  11521 WAT         9.1590   22.8440    2.8410 O      11521 WAT       0.0490
  11522 WAT         9.1590   22.8440    3.0910 O      11522 WAT       0.0462
  11523 WAT         9.1590   22.8440   16.5910 O      11523 WAT       0.0908
  11524 WAT         9.1590   22.8440   16.8410 O      11524 WAT       0.1284
  11525 WAT         9.1590   22.8440   17.0910 O      11525 WAT       0.1198
  11526 WAT         9.1590   22.8440   17.3410 O      11526 WAT       0.0742
  11527 WAT         9.1590   23.0940    2.5910 O      11527 WAT       0.0584
  11528 WAT         9.1590   23.0940    2.8410 O      11528 WAT       0.0629
  11529 WAT         9.1590   23.0940    3.0910 O      11529 WAT       0.0605
  11530 WAT         9.1590   23.0940    3.3410 O      11530 WAT       0.0515
  11531 WAT         9.1590   23.3440    2.5910 O      11531 WAT       0.0614
  11532 WAT         9.1590   23.3440    2.8410 O      11532 WAT       0.0672
  11533 WAT         9.1590   23.3440    3.0910 O      11533 WAT       0.0659
  11534 WAT         9.1590   23.3440    3.3410 O      11534 WAT       0.0578
  11535 WAT         9.1590   23.3440    5.8410 O      11535 WAT       0.0460
  11536 WAT         9.1590   23.5940    2.5910 O      11536 WAT       0.0530
  11537 WAT         9.1590   23.5940    2.8410 O      11537 WAT       0.0597
  11538 WAT         9.1590   23.5940    3.0910 O      11538 WAT       0.0613
  11539 WAT         9.1590   23.5940    3.3410 O      11539 WAT       0.0569
  11540 WAT         9.1590   23.5940    3.5910 O      11540 WAT       0.0467
  11541 WAT         9.1590   23.8440    2.8410 O      11541 WAT       0.0468
  11542 WAT         9.1590   23.8440    3.0910 O      11542 WAT       0.0524
  11543 WAT         9.1590   23.8440    3.3410 O      11543 WAT       0.0537
  11544 WAT         9.1590   23.8440    3.5910 O      11544 WAT       0.0488
  11545 WAT         9.1590   24.0940    3.0910 O      11545 WAT       0.0458
  11546 WAT         9.1590   24.0940    3.3410 O      11546 WAT       0.0526
  11547 WAT         9.1590   24.0940    3.5910 O      11547 WAT       0.0530
  11548 WAT         9.1590   24.0940    3.8410 O      11548 WAT       0.0495
  11549 WAT         9.1590   24.0940    4.0910 O      11549 WAT       0.0471
  11550 WAT         9.1590   24.0940    4.3410 O      11550 WAT       0.0464
  11551 WAT         9.1590   24.3440    3.3410 O      11551 WAT       0.0544
  11552 WAT         9.1590   24.3440    3.5910 O      11552 WAT       0.0582
  11553 WAT         9.1590   24.3440    3.8410 O      11553 WAT       0.0567
  11554 WAT         9.1590   24.3440    4.0910 O      11554 WAT       0.0542
  11555 WAT         9.1590   24.3440    4.3410 O      11555 WAT       0.0518
  11556 WAT         9.1590   24.3440    4.5910 O      11556 WAT       0.0472
  11557 WAT         9.1590   24.5940    3.0910 O      11557 WAT       0.0461
  11558 WAT         9.1590   24.5940    3.3410 O      11558 WAT       0.0574
  11559 WAT         9.1590   24.5940    3.5910 O      11559 WAT       0.0614
  11560 WAT         9.1590   24.5940    3.8410 O      11560 WAT       0.0581
  11561 WAT         9.1590   24.5940    4.0910 O      11561 WAT       0.0522
  11562 WAT         9.1590   24.5940    4.3410 O      11562 WAT       0.0460
  11563 WAT         9.1590   24.5940    6.8410 O      11563 WAT       0.0657
  11564 WAT         9.1590   24.5940    7.0910 O      11564 WAT       0.0993
  11565 WAT         9.1590   24.5940    7.3410 O      11565 WAT       0.1145
  11566 WAT         9.1590   24.5940    7.5910 O      11566 WAT       0.0999
  11567 WAT         9.1590   24.5940    7.8410 O      11567 WAT       0.0652
  11568 WAT         9.1590   24.8440    3.0910 O      11568 WAT       0.0488
  11569 WAT         9.1590   24.8440    3.3410 O      11569 WAT       0.0587
  11570 WAT         9.1590   24.8440    3.5910 O      11570 WAT       0.0601
  11571 WAT         9.1590   24.8440    3.8410 O      11571 WAT       0.0525
  11572 WAT         9.1590   24.8440    6.5910 O      11572 WAT       0.0681
  11573 WAT         9.1590   24.8440    6.8410 O      11573 WAT       0.1420
  11574 WAT         9.1590   24.8440    7.0910 O      11574 WAT       0.2248
  11575 WAT         9.1590   24.8440    7.3410 O      11575 WAT       0.2705
  11576 WAT         9.1590   24.8440    7.5910 O      11576 WAT       0.2477
  11577 WAT         9.1590   24.8440    7.8410 O      11577 WAT       0.1718
  11578 WAT         9.1590   24.8440    8.0910 O      11578 WAT       0.0890
  11579 WAT         9.1590   25.0940    3.0910 O      11579 WAT       0.0492
  11580 WAT         9.1590   25.0940    3.3410 O      11580 WAT       0.0558
  11581 WAT         9.1590   25.0940    3.5910 O      11581 WAT       0.0531
  11582 WAT         9.1590   25.0940    6.5910 O      11582 WAT       0.0986
  11583 WAT         9.1590   25.0940    6.8410 O      11583 WAT       0.2146
  11584 WAT         9.1590   25.0940    7.0910 O      11584 WAT       0.3531
  11585 WAT         9.1590   25.0940    7.3410 O      11585 WAT       0.4429
  11586 WAT         9.1590   25.0940    7.5910 O      11586 WAT       0.4254
  11587 WAT         9.1590   25.0940    7.8410 O      11587 WAT       0.3120
  11588 WAT         9.1590   25.0940    8.0910 O      11588 WAT       0.1725
  11589 WAT         9.1590   25.0940    8.3410 O      11589 WAT       0.0707
  11590 WAT         9.1590   25.3440    3.0910 O      11590 WAT       0.0460
  11591 WAT         9.1590   25.3440    3.3410 O      11591 WAT       0.0486
  11592 WAT         9.1590   25.3440    6.5910 O      11592 WAT       0.0962
  11593 WAT         9.1590   25.3440    6.8410 O      11593 WAT       0.2179
  11594 WAT         9.1590   25.3440    7.0910 O      11594 WAT       0.3732
  11595 WAT         9.1590   25.3440    7.3410 O      11595 WAT       0.4895
  11596 WAT         9.1590   25.3440    7.5910 O      11596 WAT       0.4952
  11597 WAT         9.1590   25.3440    7.8410 O      11597 WAT       0.3848
  11598 WAT         9.1590   25.3440    8.0910 O      11598 WAT       0.2267
  11599 WAT         9.1590   25.3440    8.3410 O      11599 WAT       0.0998
  11600 WAT         9.1590   25.5940    6.5910 O      11600 WAT       0.0612
  11601 WAT         9.1590   25.5940    6.8410 O      11601 WAT       0.1453
  11602 WAT         9.1590   25.5940    7.0910 O      11602 WAT       0.2603
  11603 WAT         9.1590   25.5940    7.3410 O      11603 WAT       0.3591
  11604 WAT         9.1590   25.5940    7.5910 O      11604 WAT       0.3843
  11605 WAT         9.1590   25.5940    7.8410 O      11605 WAT       0.3174
  11606 WAT         9.1590   25.5940    8.0910 O      11606 WAT       0.1995
  11607 WAT         9.1590   25.5940    8.3410 O      11607 WAT       0.0942
  11608 WAT         9.1590   25.8440    6.8410 O      11608 WAT       0.0622
  11609 WAT         9.1590   25.8440    7.0910 O      11609 WAT       0.1181
  11610 WAT         9.1590   25.8440    7.3410 O      11610 WAT       0.1726
  11611 WAT         9.1590   25.8440    7.5910 O      11611 WAT       0.1964
  11612 WAT         9.1590   25.8440    7.8410 O      11612 WAT       0.1729
  11613 WAT         9.1590   25.8440    8.0910 O      11613 WAT       0.1160
  11614 WAT         9.1590   25.8440    8.3410 O      11614 WAT       0.0586
  11615 WAT         9.1590   26.0940    7.3410 O      11615 WAT       0.0530
  11616 WAT         9.1590   26.0940    7.5910 O      11616 WAT       0.0647
  11617 WAT         9.1590   26.0940    7.8410 O      11617 WAT       0.0609
  11618 WAT         9.4090    9.8440   18.3410 O      11618 WAT       0.0451
  11619 WAT         9.4090   10.0940   18.0910 O      11619 WAT       0.0479
  11620 WAT         9.4090   10.0940   18.3410 O      11620 WAT       0.0536
  11621 WAT         9.4090   10.0940   18.5910 O      11621 WAT       0.0522
  11622 WAT         9.4090   10.3440   18.0910 O      11622 WAT       0.0517
  11623 WAT         9.4090   10.3440   18.3410 O      11623 WAT       0.0587
  11624 WAT         9.4090   10.3440   18.5910 O      11624 WAT       0.0583
  11625 WAT         9.4090   10.3440   18.8410 O      11625 WAT       0.0480
  11626 WAT         9.4090   10.5940   18.0910 O      11626 WAT       0.0521
  11627 WAT         9.4090   10.5940   18.3410 O      11627 WAT       0.0596
  11628 WAT         9.4090   10.5940   18.5910 O      11628 WAT       0.0599
  11629 WAT         9.4090   10.5940   18.8410 O      11629 WAT       0.0502
  11630 WAT         9.4090   10.8440   18.0910 O      11630 WAT       0.0513
  11631 WAT         9.4090   10.8440   18.3410 O      11631 WAT       0.0589
  11632 WAT         9.4090   10.8440   18.5910 O      11632 WAT       0.0591
  11633 WAT         9.4090   10.8440   18.8410 O      11633 WAT       0.0493
  11634 WAT         9.4090   11.0940   18.0910 O      11634 WAT       0.0537
  11635 WAT         9.4090   11.0940   18.3410 O      11635 WAT       0.0615
  11636 WAT         9.4090   11.0940   18.5910 O      11636 WAT       0.0603
  11637 WAT         9.4090   11.0940   18.8410 O      11637 WAT       0.0486
  11638 WAT         9.4090   11.3440   17.8410 O      11638 WAT       0.0488
  11639 WAT         9.4090   11.3440   18.0910 O      11639 WAT       0.0632
  11640 WAT         9.4090   11.3440   18.3410 O      11640 WAT       0.0713
  11641 WAT         9.4090   11.3440   18.5910 O      11641 WAT       0.0668
  11642 WAT         9.4090   11.3440   18.8410 O      11642 WAT       0.0506
  11643 WAT         9.4090   11.5940   17.8410 O      11643 WAT       0.0606
  11644 WAT         9.4090   11.5940   18.0910 O      11644 WAT       0.0791
  11645 WAT         9.4090   11.5940   18.3410 O      11645 WAT       0.0865
  11646 WAT         9.4090   11.5940   18.5910 O      11646 WAT       0.0760
  11647 WAT         9.4090   11.5940   18.8410 O      11647 WAT       0.0529
  11648 WAT         9.4090   11.8440   17.5910 O      11648 WAT       0.0491
  11649 WAT         9.4090   11.8440   17.8410 O      11649 WAT       0.0725
  11650 WAT         9.4090   11.8440   18.0910 O      11650 WAT       0.0934
  11651 WAT         9.4090   11.8440   18.3410 O      11651 WAT       0.0981
  11652 WAT         9.4090   11.8440   18.5910 O      11652 WAT       0.0810
  11653 WAT         9.4090   11.8440   18.8410 O      11653 WAT       0.0518
  11654 WAT         9.4090   12.0940   17.5910 O      11654 WAT       0.0520
  11655 WAT         9.4090   12.0940   17.8410 O      11655 WAT       0.0770
  11656 WAT         9.4090   12.0940   18.0910 O      11656 WAT       0.0966
  11657 WAT         9.4090   12.0940   18.3410 O      11657 WAT       0.0981
  11658 WAT         9.4090   12.0940   18.5910 O      11658 WAT       0.0778
  11659 WAT         9.4090   12.0940   18.8410 O      11659 WAT       0.0469
  11660 WAT         9.4090   12.3440   17.5910 O      11660 WAT       0.0488
  11661 WAT         9.4090   12.3440   17.8410 O      11661 WAT       0.0712
  11662 WAT         9.4090   12.3440   18.0910 O      11662 WAT       0.0875
  11663 WAT         9.4090   12.3440   18.3410 O      11663 WAT       0.0876
  11664 WAT         9.4090   12.3440   18.5910 O      11664 WAT       0.0686
  11665 WAT         9.4090   12.5940   17.8410 O      11665 WAT       0.0594
  11666 WAT         9.4090   12.5940   18.0910 O      11666 WAT       0.0722
  11667 WAT         9.4090   12.5940   18.3410 O      11667 WAT       0.0723
  11668 WAT         9.4090   12.5940   18.5910 O      11668 WAT       0.0568
  11669 WAT         9.4090   12.8440   17.8410 O      11669 WAT       0.0470
  11670 WAT         9.4090   12.8440   18.0910 O      11670 WAT       0.0565
  11671 WAT         9.4090   12.8440   18.3410 O      11671 WAT       0.0565
  11672 WAT         9.4090   13.8440   19.3410 O      11672 WAT       0.0537
  11673 WAT         9.4090   13.8440   19.5910 O      11673 WAT       0.0539
  11674 WAT         9.4090   14.0940   10.3410 O      11674 WAT       0.0457
  11675 WAT         9.4090   14.0940   10.5910 O      11675 WAT       0.0476
  11676 WAT         9.4090   14.0940   10.8410 O      11676 WAT       0.0472
  11677 WAT         9.4090   14.0940   19.0910 O      11677 WAT       0.0591
  11678 WAT         9.4090   14.0940   19.3410 O      11678 WAT       0.0892
  11679 WAT         9.4090   14.0940   19.5910 O      11679 WAT       0.0894
  11680 WAT         9.4090   14.0940   19.8410 O      11680 WAT       0.0576
  11681 WAT         9.4090   14.3440    9.8410 O      11681 WAT       0.0460
  11682 WAT         9.4090   14.3440   10.0910 O      11682 WAT       0.0473
  11683 WAT         9.4090   14.3440   10.3410 O      11683 WAT       0.0479
  11684 WAT         9.4090   14.3440   10.5910 O      11684 WAT       0.0473
  11685 WAT         9.4090   14.3440   12.8410 O      11685 WAT       0.0453
  11686 WAT         9.4090   14.3440   13.0910 O      11686 WAT       0.0464
  11687 WAT         9.4090   14.3440   19.0910 O      11687 WAT       0.0655
  11688 WAT         9.4090   14.3440   19.3410 O      11688 WAT       0.0981
  11689 WAT         9.4090   14.3440   19.5910 O      11689 WAT       0.0962
  11690 WAT         9.4090   14.3440   19.8410 O      11690 WAT       0.0605
  11691 WAT         9.4090   14.5940    8.8410 O      11691 WAT       0.0467
  11692 WAT         9.4090   14.5940    9.0910 O      11692 WAT       0.0478
  11693 WAT         9.4090   14.5940    9.3410 O      11693 WAT       0.0479
  11694 WAT         9.4090   14.5940    9.5910 O      11694 WAT       0.0476
  11695 WAT         9.4090   14.5940    9.8410 O      11695 WAT       0.0468
  11696 WAT         9.4090   14.5940   10.0910 O      11696 WAT       0.0452
  11697 WAT         9.4090   14.5940   12.5910 O      11697 WAT       0.0493
  11698 WAT         9.4090   14.5940   12.8410 O      11698 WAT       0.0576
  11699 WAT         9.4090   14.5940   13.0910 O      11699 WAT       0.0605
  11700 WAT         9.4090   14.5940   13.3410 O      11700 WAT       0.0552
  11701 WAT         9.4090   14.5940   19.0910 O      11701 WAT       0.0508
  11702 WAT         9.4090   14.5940   19.3410 O      11702 WAT       0.0733
  11703 WAT         9.4090   14.5940   19.5910 O      11703 WAT       0.0690
  11704 WAT         9.4090   14.8440    8.5910 O      11704 WAT       0.0493
  11705 WAT         9.4090   14.8440    8.8410 O      11705 WAT       0.0509
  11706 WAT         9.4090   14.8440    9.0910 O      11706 WAT       0.0497
  11707 WAT         9.4090   14.8440    9.3410 O      11707 WAT       0.0469
  11708 WAT         9.4090   14.8440   12.5910 O      11708 WAT       0.0555
  11709 WAT         9.4090   14.8440   12.8410 O      11709 WAT       0.0699
  11710 WAT         9.4090   14.8440   13.0910 O      11710 WAT       0.0769
  11711 WAT         9.4090   14.8440   13.3410 O      11711 WAT       0.0724
  11712 WAT         9.4090   14.8440   13.5910 O      11712 WAT       0.0578
  11713 WAT         9.4090   15.0940    8.3410 O      11713 WAT       0.0480
  11714 WAT         9.4090   15.0940    8.5910 O      11714 WAT       0.0505
  11715 WAT         9.4090   15.0940    8.8410 O      11715 WAT       0.0492
  11716 WAT         9.4090   15.0940   12.5910 O      11716 WAT       0.0544
  11717 WAT         9.4090   15.0940   12.8410 O      11717 WAT       0.0741
  11718 WAT         9.4090   15.0940   13.0910 O      11718 WAT       0.0865
  11719 WAT         9.4090   15.0940   13.3410 O      11719 WAT       0.0853
  11720 WAT         9.4090   15.0940   13.5910 O      11720 WAT       0.0708
  11721 WAT         9.4090   15.0940   13.8410 O      11721 WAT       0.0507
  11722 WAT         9.4090   15.3440    8.0910 O      11722 WAT       0.0451
  11723 WAT         9.4090   15.3440    8.3410 O      11723 WAT       0.0475
  11724 WAT         9.4090   15.3440    8.5910 O      11724 WAT       0.0461
  11725 WAT         9.4090   15.3440   12.8410 O      11725 WAT       0.0640
  11726 WAT         9.4090   15.3440   13.0910 O      11726 WAT       0.0795
  11727 WAT         9.4090   15.3440   13.3410 O      11727 WAT       0.0823
  11728 WAT         9.4090   15.3440   13.5910 O      11728 WAT       0.0714
  11729 WAT         9.4090   15.3440   13.8410 O      11729 WAT       0.0539
  11730 WAT         9.4090   15.3440   15.5910 O      11730 WAT       0.0451
  11731 WAT         9.4090   15.5940    8.0910 O      11731 WAT       0.0462
  11732 WAT         9.4090   15.5940   13.0910 O      11732 WAT       0.0564
  11733 WAT         9.4090   15.5940   13.3410 O      11733 WAT       0.0612
  11734 WAT         9.4090   15.5940   13.5910 O      11734 WAT       0.0559
  11735 WAT         9.4090   15.5940   26.8410 O      11735 WAT       0.0994
  11736 WAT         9.4090   15.5940   27.0910 O      11736 WAT       0.1484
  11737 WAT         9.4090   15.5940   27.3410 O      11737 WAT       0.1396
  11738 WAT         9.4090   15.5940   27.5910 O      11738 WAT       0.0821
  11739 WAT         9.4090   15.8440    7.8410 O      11739 WAT       0.0478
  11740 WAT         9.4090   15.8440    8.0910 O      11740 WAT       0.0454
  11741 WAT         9.4090   15.8440   26.5910 O      11741 WAT       0.1059
  11742 WAT         9.4090   15.8440   26.8410 O      11742 WAT       0.2515
  11743 WAT         9.4090   15.8440   27.0910 O      11743 WAT       0.3784
  11744 WAT         9.4090   15.8440   27.3410 O      11744 WAT       0.3598
  11745 WAT         9.4090   15.8440   27.5910 O      11745 WAT       0.2149
  11746 WAT         9.4090   15.8440   27.8410 O      11746 WAT       0.0797
  11747 WAT         9.4090   16.0940    7.5910 O      11747 WAT       0.0486
  11748 WAT         9.4090   16.0940    7.8410 O      11748 WAT       0.0490
  11749 WAT         9.4090   16.0940   17.3410 O      11749 WAT       0.0513
  11750 WAT         9.4090   16.0940   17.5910 O      11750 WAT       0.0509
  11751 WAT         9.4090   16.0940   26.5910 O      11751 WAT       0.1705
  11752 WAT         9.4090   16.0940   26.8410 O      11752 WAT       0.4075
  11753 WAT         9.4090   16.0940   27.0910 O      11753 WAT       0.6192
  11754 WAT         9.4090   16.0940   27.3410 O      11754 WAT       0.5944
  11755 WAT         9.4090   16.0940   27.5910 O      11755 WAT       0.3582
  11756 WAT         9.4090   16.0940   27.8410 O      11756 WAT       0.1347
  11757 WAT         9.4090   16.3440    7.5910 O      11757 WAT       0.0493
  11758 WAT         9.4090   16.3440    7.8410 O      11758 WAT       0.0454
  11759 WAT         9.4090   16.3440   17.0910 O      11759 WAT       0.0511
  11760 WAT         9.4090   16.3440   17.3410 O      11760 WAT       0.0652
  11761 WAT         9.4090   16.3440   17.5910 O      11761 WAT       0.0646
  11762 WAT         9.4090   16.3440   17.8410 O      11762 WAT       0.0483
  11763 WAT         9.4090   16.3440   26.3410 O      11763 WAT       0.0451
  11764 WAT         9.4090   16.3440   26.5910 O      11764 WAT       0.1751
  11765 WAT         9.4090   16.3440   26.8410 O      11765 WAT       0.4216
  11766 WAT         9.4090   16.3440   27.0910 O      11766 WAT       0.6463
  11767 WAT         9.4090   16.3440   27.3410 O      11767 WAT       0.6257
  11768 WAT         9.4090   16.3440   27.5910 O      11768 WAT       0.3802
  11769 WAT         9.4090   16.3440   27.8410 O      11769 WAT       0.1441
  11770 WAT         9.4090   16.5940    7.5910 O      11770 WAT       0.0457
  11771 WAT         9.4090   16.5940   17.0910 O      11771 WAT       0.0458
  11772 WAT         9.4090   16.5940   17.3410 O      11772 WAT       0.0583
  11773 WAT         9.4090   16.5940   17.5910 O      11773 WAT       0.0579
  11774 WAT         9.4090   16.5940   26.5910 O      11774 WAT       0.1139
  11775 WAT         9.4090   16.5940   26.8410 O      11775 WAT       0.2769
  11776 WAT         9.4090   16.5940   27.0910 O      11776 WAT       0.4276
  11777 WAT         9.4090   16.5940   27.3410 O      11777 WAT       0.4172
  11778 WAT         9.4090   16.5940   27.5910 O      11778 WAT       0.2555
  11779 WAT         9.4090   16.5940   27.8410 O      11779 WAT       0.0972
  11780 WAT         9.4090   16.8440   26.5910 O      11780 WAT       0.0456
  11781 WAT         9.4090   16.8440   26.8410 O      11781 WAT       0.1144
  11782 WAT         9.4090   16.8440   27.0910 O      11782 WAT       0.1783
  11783 WAT         9.4090   16.8440   27.3410 O      11783 WAT       0.1752
  11784 WAT         9.4090   16.8440   27.5910 O      11784 WAT       0.1077
  11785 WAT         9.4090   17.0940   27.0910 O      11785 WAT       0.0451
  11786 WAT         9.4090   18.5940    7.5910 O      11786 WAT       0.0454
  11787 WAT         9.4090   18.8440    7.0910 O      11787 WAT       0.0452
  11788 WAT         9.4090   18.8440    7.3410 O      11788 WAT       0.0605
  11789 WAT         9.4090   18.8440    7.5910 O      11789 WAT       0.0686
  11790 WAT         9.4090   18.8440    7.8410 O      11790 WAT       0.0622
  11791 WAT         9.4090   19.0940    7.0910 O      11791 WAT       0.0575
  11792 WAT         9.4090   19.0940    7.3410 O      11792 WAT       0.0777
  11793 WAT         9.4090   19.0940    7.5910 O      11793 WAT       0.0901
  11794 WAT         9.4090   19.0940    7.8410 O      11794 WAT       0.0846
  11795 WAT         9.4090   19.0940    8.0910 O      11795 WAT       0.0608
  11796 WAT         9.4090   19.3440    7.0910 O      11796 WAT       0.0651
  11797 WAT         9.4090   19.3440    7.3410 O      11797 WAT       0.0865
  11798 WAT         9.4090   19.3440    7.5910 O      11798 WAT       0.1000
  11799 WAT         9.4090   19.3440    7.8410 O      11799 WAT       0.0947
  11800 WAT         9.4090   19.3440    8.0910 O      11800 WAT       0.0696
  11801 WAT         9.4090   19.5940    6.8410 O      11801 WAT       0.0476
  11802 WAT         9.4090   19.5940    7.0910 O      11802 WAT       0.0665
  11803 WAT         9.4090   19.5940    7.3410 O      11803 WAT       0.0849
  11804 WAT         9.4090   19.5940    7.5910 O      11804 WAT       0.0951
  11805 WAT         9.4090   19.5940    7.8410 O      11805 WAT       0.0883
  11806 WAT         9.4090   19.5940    8.0910 O      11806 WAT       0.0645
  11807 WAT         9.4090   19.8440    6.8410 O      11807 WAT       0.0478
  11808 WAT         9.4090   19.8440    7.0910 O      11808 WAT       0.0640
  11809 WAT         9.4090   19.8440    7.3410 O      11809 WAT       0.0774
  11810 WAT         9.4090   19.8440    7.5910 O      11810 WAT       0.0816
  11811 WAT         9.4090   19.8440    7.8410 O      11811 WAT       0.0717
  11812 WAT         9.4090   19.8440    8.0910 O      11812 WAT       0.0503
  11813 WAT         9.4090   20.0940    6.8410 O      11813 WAT       0.0472
  11814 WAT         9.4090   20.0940    7.0910 O      11814 WAT       0.0608
  11815 WAT         9.4090   20.0940    7.3410 O      11815 WAT       0.0693
  11816 WAT         9.4090   20.0940    7.5910 O      11816 WAT       0.0676
  11817 WAT         9.4090   20.0940    7.8410 O      11817 WAT       0.0543
  11818 WAT         9.4090   20.3440    6.8410 O      11818 WAT       0.0479
  11819 WAT         9.4090   20.3440    7.0910 O      11819 WAT       0.0589
  11820 WAT         9.4090   20.3440    7.3410 O      11820 WAT       0.0631
  11821 WAT         9.4090   20.3440    7.5910 O      11821 WAT       0.0564
  11822 WAT         9.4090   20.5940    6.8410 O      11822 WAT       0.0504
  11823 WAT         9.4090   20.5940    7.0910 O      11823 WAT       0.0585
  11824 WAT         9.4090   20.5940    7.3410 O      11824 WAT       0.0585
  11825 WAT         9.4090   20.5940    7.5910 O      11825 WAT       0.0480
  11826 WAT         9.4090   20.8440    6.5910 O      11826 WAT       0.0457
  11827 WAT         9.4090   20.8440    6.8410 O      11827 WAT       0.0536
  11828 WAT         9.4090   20.8440    7.0910 O      11828 WAT       0.0585
  11829 WAT         9.4090   20.8440    7.3410 O      11829 WAT       0.0548
  11830 WAT         9.4090   21.0940    5.5910 O      11830 WAT       0.0537
  11831 WAT         9.4090   21.0940    5.8410 O      11831 WAT       0.0585
  11832 WAT         9.4090   21.0940    6.0910 O      11832 WAT       0.0578
  11833 WAT         9.4090   21.0940    6.3410 O      11833 WAT       0.0553
  11834 WAT         9.4090   21.0940    6.5910 O      11834 WAT       0.0553
  11835 WAT         9.4090   21.0940    6.8410 O      11835 WAT       0.0579
  11836 WAT         9.4090   21.0940    7.0910 O      11836 WAT       0.0583
  11837 WAT         9.4090   21.0940    7.3410 O      11837 WAT       0.0512
  11838 WAT         9.4090   21.3440    5.3410 O      11838 WAT       0.0549
  11839 WAT         9.4090   21.3440    5.5910 O      11839 WAT       0.0716
  11840 WAT         9.4090   21.3440    5.8410 O      11840 WAT       0.0820
  11841 WAT         9.4090   21.3440    6.0910 O      11841 WAT       0.0825
  11842 WAT         9.4090   21.3440    6.3410 O      11842 WAT       0.0760
  11843 WAT         9.4090   21.3440    6.5910 O      11843 WAT       0.0691
  11844 WAT         9.4090   21.3440    6.8410 O      11844 WAT       0.0643
  11845 WAT         9.4090   21.3440    7.0910 O      11845 WAT       0.0587
  11846 WAT         9.4090   21.3440    7.3410 O      11846 WAT       0.0477
  11847 WAT         9.4090   21.5940    5.3410 O      11847 WAT       0.0564
  11848 WAT         9.4090   21.5940    5.5910 O      11848 WAT       0.0784
  11849 WAT         9.4090   21.5940    5.8410 O      11849 WAT       0.0956
  11850 WAT         9.4090   21.5940    6.0910 O      11850 WAT       0.1008
  11851 WAT         9.4090   21.5940    6.3410 O      11851 WAT       0.0945
  11852 WAT         9.4090   21.5940    6.5910 O      11852 WAT       0.0831
  11853 WAT         9.4090   21.5940    6.8410 O      11853 WAT       0.0716
  11854 WAT         9.4090   21.5940    7.0910 O      11854 WAT       0.0595
  11855 WAT         9.4090   21.5940   16.5910 O      11855 WAT       0.0727
  11856 WAT         9.4090   21.5940   16.8410 O      11856 WAT       0.1005
  11857 WAT         9.4090   21.5940   17.0910 O      11857 WAT       0.0895
  11858 WAT         9.4090   21.5940   17.3410 O      11858 WAT       0.0515
  11859 WAT         9.4090   21.8440    5.3410 O      11859 WAT       0.0472
  11860 WAT         9.4090   21.8440    5.5910 O      11860 WAT       0.0696
  11861 WAT         9.4090   21.8440    5.8410 O      11861 WAT       0.0902
  11862 WAT         9.4090   21.8440    6.0910 O      11862 WAT       0.1013
  11863 WAT         9.4090   21.8440    6.3410 O      11863 WAT       0.0996
  11864 WAT         9.4090   21.8440    6.5910 O      11864 WAT       0.0887
  11865 WAT         9.4090   21.8440    6.8410 O      11865 WAT       0.0739
  11866 WAT         9.4090   21.8440    7.0910 O      11866 WAT       0.0574
  11867 WAT         9.4090   21.8440   16.3410 O      11867 WAT       0.0739
  11868 WAT         9.4090   21.8440   16.5910 O      11868 WAT       0.1587
  11869 WAT         9.4090   21.8440   16.8410 O      11869 WAT       0.2192
  11870 WAT         9.4090   21.8440   17.0910 O      11870 WAT       0.1977
  11871 WAT         9.4090   21.8440   17.3410 O      11871 WAT       0.1173
  11872 WAT         9.4090   21.8440   17.5910 O      11872 WAT       0.0453
  11873 WAT         9.4090   22.0940    5.5910 O      11873 WAT       0.0518
  11874 WAT         9.4090   22.0940    5.8410 O      11874 WAT       0.0710
  11875 WAT         9.4090   22.0940    6.0910 O      11875 WAT       0.0846
  11876 WAT         9.4090   22.0940    6.3410 O      11876 WAT       0.0875
  11877 WAT         9.4090   22.0940    6.5910 O      11877 WAT       0.0796
  11878 WAT         9.4090   22.0940    6.8410 O      11878 WAT       0.0652
  11879 WAT         9.4090   22.0940    7.0910 O      11879 WAT       0.0483
  11880 WAT         9.4090   22.0940   16.3410 O      11880 WAT       0.1034
  11881 WAT         9.4090   22.0940   16.5910 O      11881 WAT       0.2211
  11882 WAT         9.4090   22.0940   16.8410 O      11882 WAT       0.3066
  11883 WAT         9.4090   22.0940   17.0910 O      11883 WAT       0.2790
  11884 WAT         9.4090   22.0940   17.3410 O      11884 WAT       0.1683
  11885 WAT         9.4090   22.0940   17.5910 O      11885 WAT       0.0672
  11886 WAT         9.4090   22.3440    5.8410 O      11886 WAT       0.0527
  11887 WAT         9.4090   22.3440    6.0910 O      11887 WAT       0.0646
  11888 WAT         9.4090   22.3440    6.3410 O      11888 WAT       0.0676
  11889 WAT         9.4090   22.3440    6.5910 O      11889 WAT       0.0605
  11890 WAT         9.4090   22.3440    6.8410 O      11890 WAT       0.0475
  11891 WAT         9.4090   22.3440   16.3410 O      11891 WAT       0.0932
  11892 WAT         9.4090   22.3440   16.5910 O      11892 WAT       0.1995
  11893 WAT         9.4090   22.3440   16.8410 O      11893 WAT       0.2775
  11894 WAT         9.4090   22.3440   17.0910 O      11894 WAT       0.2544
  11895 WAT         9.4090   22.3440   17.3410 O      11895 WAT       0.1551
  11896 WAT         9.4090   22.3440   17.5910 O      11896 WAT       0.0627
  11897 WAT         9.4090   22.5940    2.5910 O      11897 WAT       0.0527
  11898 WAT         9.4090   22.5940    2.8410 O      11898 WAT       0.0547
  11899 WAT         9.4090   22.5940    3.0910 O      11899 WAT       0.0512
  11900 WAT         9.4090   22.5940    5.8410 O      11900 WAT       0.0462
  11901 WAT         9.4090   22.5940    6.0910 O      11901 WAT       0.0542
  11902 WAT         9.4090   22.5940    6.3410 O      11902 WAT       0.0526
  11903 WAT         9.4090   22.5940   16.3410 O      11903 WAT       0.0538
  11904 WAT         9.4090   22.5940   16.5910 O      11904 WAT       0.1166
  11905 WAT         9.4090   22.5940   16.8410 O      11905 WAT       0.1628
  11906 WAT         9.4090   22.5940   17.0910 O      11906 WAT       0.1498
  11907 WAT         9.4090   22.5940   17.3410 O      11907 WAT       0.0916
  11908 WAT         9.4090   22.8440    2.5910 O      11908 WAT       0.0703
  11909 WAT         9.4090   22.8440    2.8410 O      11909 WAT       0.0756
  11910 WAT         9.4090   22.8440    3.0910 O      11910 WAT       0.0739
  11911 WAT         9.4090   22.8440    3.3410 O      11911 WAT       0.0645
  11912 WAT         9.4090   22.8440    3.5910 O      11912 WAT       0.0483
  11913 WAT         9.4090   22.8440    5.8410 O      11913 WAT       0.0518
  11914 WAT         9.4090   22.8440    6.0910 O      11914 WAT       0.0556
  11915 WAT         9.4090   22.8440    6.3410 O      11915 WAT       0.0476
  11916 WAT         9.4090   22.8440   16.8410 O      11916 WAT       0.0608
  11917 WAT         9.4090   22.8440   17.0910 O      11917 WAT       0.0558
  11918 WAT         9.4090   23.0940    2.5910 O      11918 WAT       0.0808
  11919 WAT         9.4090   23.0940    2.8410 O      11919 WAT       0.0891
  11920 WAT         9.4090   23.0940    3.0910 O      11920 WAT       0.0895
  11921 WAT         9.4090   23.0940    3.3410 O      11921 WAT       0.0803
  11922 WAT         9.4090   23.0940    3.5910 O      11922 WAT       0.0624
  11923 WAT         9.4090   23.0940    5.5910 O      11923 WAT       0.0503
  11924 WAT         9.4090   23.0940    5.8410 O      11924 WAT       0.0627
  11925 WAT         9.4090   23.0940    6.0910 O      11925 WAT       0.0620
  11926 WAT         9.4090   23.0940    6.3410 O      11926 WAT       0.0480
  11927 WAT         9.4090   23.3440    2.5910 O      11927 WAT       0.0776
  11928 WAT         9.4090   23.3440    2.8410 O      11928 WAT       0.0874
  11929 WAT         9.4090   23.3440    3.0910 O      11929 WAT       0.0899
  11930 WAT         9.4090   23.3440    3.3410 O      11930 WAT       0.0835
  11931 WAT         9.4090   23.3440    3.5910 O      11931 WAT       0.0682
  11932 WAT         9.4090   23.3440    3.8410 O      11932 WAT       0.0497
  11933 WAT         9.4090   23.3440    5.5910 O      11933 WAT       0.0596
  11934 WAT         9.4090   23.3440    5.8410 O      11934 WAT       0.0689
  11935 WAT         9.4090   23.3440    6.0910 O      11935 WAT       0.0637
  11936 WAT         9.4090   23.3440    6.3410 O      11936 WAT       0.0463
  11937 WAT         9.4090   23.5940    2.5910 O      11937 WAT       0.0614
  11938 WAT         9.4090   23.5940    2.8410 O      11938 WAT       0.0713
  11939 WAT         9.4090   23.5940    3.0910 O      11939 WAT       0.0768
  11940 WAT         9.4090   23.5940    3.3410 O      11940 WAT       0.0757
  11941 WAT         9.4090   23.5940    3.5910 O      11941 WAT       0.0668
  11942 WAT         9.4090   23.5940    3.8410 O      11942 WAT       0.0550
  11943 WAT         9.4090   23.5940    4.0910 O      11943 WAT       0.0473
  11944 WAT         9.4090   23.5940    5.3410 O      11944 WAT       0.0508
  11945 WAT         9.4090   23.5940    5.5910 O      11945 WAT       0.0611
  11946 WAT         9.4090   23.5940    5.8410 O      11946 WAT       0.0645
  11947 WAT         9.4090   23.5940    6.0910 O      11947 WAT       0.0558
  11948 WAT         9.4090   23.8440    2.8410 O      11948 WAT       0.0508
  11949 WAT         9.4090   23.8440    3.0910 O      11949 WAT       0.0596
  11950 WAT         9.4090   23.8440    3.3410 O      11950 WAT       0.0648
  11951 WAT         9.4090   23.8440    3.5910 O      11951 WAT       0.0638
  11952 WAT         9.4090   23.8440    3.8410 O      11952 WAT       0.0608
  11953 WAT         9.4090   23.8440    4.0910 O      11953 WAT       0.0620
  11954 WAT         9.4090   23.8440    4.3410 O      11954 WAT       0.0664
  11955 WAT         9.4090   23.8440    4.5910 O      11955 WAT       0.0668
  11956 WAT         9.4090   23.8440    4.8410 O      11956 WAT       0.0605
  11957 WAT         9.4090   23.8440    5.0910 O      11957 WAT       0.0537
  11958 WAT         9.4090   23.8440    5.3410 O      11958 WAT       0.0524
  11959 WAT         9.4090   23.8440    5.5910 O      11959 WAT       0.0539
  11960 WAT         9.4090   23.8440    5.8410 O      11960 WAT       0.0512
  11961 WAT         9.4090   24.0940    3.0910 O      11961 WAT       0.0465
  11962 WAT         9.4090   24.0940    3.3410 O      11962 WAT       0.0570
  11963 WAT         9.4090   24.0940    3.5910 O      11963 WAT       0.0630
  11964 WAT         9.4090   24.0940    3.8410 O      11964 WAT       0.0676
  11965 WAT         9.4090   24.0940    4.0910 O      11965 WAT       0.0755
  11966 WAT         9.4090   24.0940    4.3410 O      11966 WAT       0.0833
  11967 WAT         9.4090   24.0940    4.5910 O      11967 WAT       0.0820
  11968 WAT         9.4090   24.0940    4.8410 O      11968 WAT       0.0698
  11969 WAT         9.4090   24.0940    5.0910 O      11969 WAT       0.0553
  11970 WAT         9.4090   24.0940    5.3410 O      11970 WAT       0.0462
  11971 WAT         9.4090   24.3440    3.3410 O      11971 WAT       0.0529
  11972 WAT         9.4090   24.3440    3.5910 O      11972 WAT       0.0629
  11973 WAT         9.4090   24.3440    3.8410 O      11973 WAT       0.0707
  11974 WAT         9.4090   24.3440    4.0910 O      11974 WAT       0.0793
  11975 WAT         9.4090   24.3440    4.3410 O      11975 WAT       0.0845
  11976 WAT         9.4090   24.3440    4.5910 O      11976 WAT       0.0787
  11977 WAT         9.4090   24.3440    4.8410 O      11977 WAT       0.0627
  11978 WAT         9.4090   24.3440    5.0910 O      11978 WAT       0.0456
  11979 WAT         9.4090   24.5940    3.3410 O      11979 WAT       0.0498
  11980 WAT         9.4090   24.5940    3.5910 O      11980 WAT       0.0597
  11981 WAT         9.4090   24.5940    3.8410 O      11981 WAT       0.0652
  11982 WAT         9.4090   24.5940    4.0910 O      11982 WAT       0.0684
  11983 WAT         9.4090   24.5940    4.3410 O      11983 WAT       0.0672
  11984 WAT         9.4090   24.5940    4.5910 O      11984 WAT       0.0580
  11985 WAT         9.4090   24.5940    6.8410 O      11985 WAT       0.0642
  11986 WAT         9.4090   24.5940    7.0910 O      11986 WAT       0.0922
  11987 WAT         9.4090   24.5940    7.3410 O      11987 WAT       0.1002
  11988 WAT         9.4090   24.5940    7.5910 O      11988 WAT       0.0818
  11989 WAT         9.4090   24.5940    7.8410 O      11989 WAT       0.0497
  11990 WAT         9.4090   24.8440    3.3410 O      11990 WAT       0.0450
  11991 WAT         9.4090   24.8440    3.5910 O      11991 WAT       0.0518
  11992 WAT         9.4090   24.8440    3.8410 O      11992 WAT       0.0519
  11993 WAT         9.4090   24.8440    4.0910 O      11993 WAT       0.0480
  11994 WAT         9.4090   24.8440    6.5910 O      11994 WAT       0.0638
  11995 WAT         9.4090   24.8440    6.8410 O      11995 WAT       0.1311
  11996 WAT         9.4090   24.8440    7.0910 O      11996 WAT       0.2009
  11997 WAT         9.4090   24.8440    7.3410 O      11997 WAT       0.2302
  11998 WAT         9.4090   24.8440    7.5910 O      11998 WAT       0.1989
  11999 WAT         9.4090   24.8440    7.8410 O      11999 WAT       0.1297
  12000 WAT         9.4090   24.8440    8.0910 O      12000 WAT       0.0629
  12001 WAT         9.4090   25.0940    6.5910 O      12001 WAT       0.0891
  12002 WAT         9.4090   25.0940    6.8410 O      12002 WAT       0.1934
  12003 WAT         9.4090   25.0940    7.0910 O      12003 WAT       0.3095
  12004 WAT         9.4090   25.0940    7.3410 O      12004 WAT       0.3708
  12005 WAT         9.4090   25.0940    7.5910 O      12005 WAT       0.3367
  12006 WAT         9.4090   25.0940    7.8410 O      12006 WAT       0.2326
  12007 WAT         9.4090   25.0940    8.0910 O      12007 WAT       0.1212
  12008 WAT         9.4090   25.0940    8.3410 O      12008 WAT       0.0466
  12009 WAT         9.4090   25.3440    6.5910 O      12009 WAT       0.0857
  12010 WAT         9.4090   25.3440    6.8410 O      12010 WAT       0.1941
  12011 WAT         9.4090   25.3440    7.0910 O      12011 WAT       0.3235
  12012 WAT         9.4090   25.3440    7.3410 O      12012 WAT       0.4055
  12013 WAT         9.4090   25.3440    7.5910 O      12013 WAT       0.3879
  12014 WAT         9.4090   25.3440    7.8410 O      12014 WAT       0.2843
  12015 WAT         9.4090   25.3440    8.0910 O      12015 WAT       0.1582
  12016 WAT         9.4090   25.3440    8.3410 O      12016 WAT       0.0657
  12017 WAT         9.4090   25.5940    6.5910 O      12017 WAT       0.0543
  12018 WAT         9.4090   25.5940    6.8410 O      12018 WAT       0.1284
  12019 WAT         9.4090   25.5940    7.0910 O      12019 WAT       0.2239
  12020 WAT         9.4090   25.5940    7.3410 O      12020 WAT       0.2949
  12021 WAT         9.4090   25.5940    7.5910 O      12021 WAT       0.2986
  12022 WAT         9.4090   25.5940    7.8410 O      12022 WAT       0.2329
  12023 WAT         9.4090   25.5940    8.0910 O      12023 WAT       0.1385
  12024 WAT         9.4090   25.5940    8.3410 O      12024 WAT       0.0618
  12025 WAT         9.4090   25.8440    6.8410 O      12025 WAT       0.0546
  12026 WAT         9.4090   25.8440    7.0910 O      12026 WAT       0.1007
  12027 WAT         9.4090   25.8440    7.3410 O      12027 WAT       0.1405
  12028 WAT         9.4090   25.8440    7.5910 O      12028 WAT       0.1514
  12029 WAT         9.4090   25.8440    7.8410 O      12029 WAT       0.1260
  12030 WAT         9.4090   25.8440    8.0910 O      12030 WAT       0.0801
  12031 WAT         9.4090   26.0940    7.5910 O      12031 WAT       0.0492
  12032 WAT         9.6590    8.3440   18.5910 O      12032 WAT       0.0509
  12033 WAT         9.6590    8.3440   18.8410 O      12033 WAT       0.0608
  12034 WAT         9.6590    8.3440   19.0910 O      12034 WAT       0.0558
  12035 WAT         9.6590   11.0940   18.3410 O      12035 WAT       0.0458
  12036 WAT         9.6590   11.3440   17.8410 O      12036 WAT       0.0489
  12037 WAT         9.6590   11.3440   18.0910 O      12037 WAT       0.0560
  12038 WAT         9.6590   11.3440   18.3410 O      12038 WAT       0.0580
  12039 WAT         9.6590   11.3440   18.5910 O      12039 WAT       0.0513
  12040 WAT         9.6590   11.5940   17.5910 O      12040 WAT       0.0542
  12041 WAT         9.6590   11.5940   17.8410 O      12041 WAT       0.0666
  12042 WAT         9.6590   11.5940   18.0910 O      12042 WAT       0.0778
  12043 WAT         9.6590   11.5940   18.3410 O      12043 WAT       0.0787
  12044 WAT         9.6590   11.5940   18.5910 O      12044 WAT       0.0653
  12045 WAT         9.6590   11.8440   17.3410 O      12045 WAT       0.0512
  12046 WAT         9.6590   11.8440   17.5910 O      12046 WAT       0.0680
  12047 WAT         9.6590   11.8440   17.8410 O      12047 WAT       0.0877
  12048 WAT         9.6590   11.8440   18.0910 O      12048 WAT       0.1022
  12049 WAT         9.6590   11.8440   18.3410 O      12049 WAT       0.1001
  12050 WAT         9.6590   11.8440   18.5910 O      12050 WAT       0.0786
  12051 WAT         9.6590   11.8440   18.8410 O      12051 WAT       0.0483
  12052 WAT         9.6590   12.0940   17.3410 O      12052 WAT       0.0533
  12053 WAT         9.6590   12.0940   17.5910 O      12053 WAT       0.0768
  12054 WAT         9.6590   12.0940   17.8410 O      12054 WAT       0.1017
  12055 WAT         9.6590   12.0940   18.0910 O      12055 WAT       0.1175
  12056 WAT         9.6590   12.0940   18.3410 O      12056 WAT       0.1127
  12057 WAT         9.6590   12.0940   18.5910 O      12057 WAT       0.0861
  12058 WAT         9.6590   12.0940   18.8410 O      12058 WAT       0.0505
  12059 WAT         9.6590   12.3440   17.3410 O      12059 WAT       0.0489
  12060 WAT         9.6590   12.3440   17.5910 O      12060 WAT       0.0748
  12061 WAT         9.6590   12.3440   17.8410 O      12061 WAT       0.1009
  12062 WAT         9.6590   12.3440   18.0910 O      12062 WAT       0.1166
  12063 WAT         9.6590   12.3440   18.3410 O      12063 WAT       0.1122
  12064 WAT         9.6590   12.3440   18.5910 O      12064 WAT       0.0859
  12065 WAT         9.6590   12.3440   18.8410 O      12065 WAT       0.0497
  12066 WAT         9.6590   12.5940   17.5910 O      12066 WAT       0.0621
  12067 WAT         9.6590   12.5940   17.8410 O      12067 WAT       0.0857
  12068 WAT         9.6590   12.5940   18.0910 O      12068 WAT       0.1009
  12069 WAT         9.6590   12.5940   18.3410 O      12069 WAT       0.0988
  12070 WAT         9.6590   12.5940   18.5910 O      12070 WAT       0.0765
  12071 WAT         9.6590   12.8440   17.5910 O      12071 WAT       0.0452
  12072 WAT         9.6590   12.8440   17.8410 O      12072 WAT       0.0635
  12073 WAT         9.6590   12.8440   18.0910 O      12073 WAT       0.0763
  12074 WAT         9.6590   12.8440   18.3410 O      12074 WAT       0.0759
  12075 WAT         9.6590   12.8440   18.5910 O      12075 WAT       0.0594
  12076 WAT         9.6590   13.0940   18.0910 O      12076 WAT       0.0517
  12077 WAT         9.6590   13.0940   18.3410 O      12077 WAT       0.0516
  12078 WAT         9.6590   13.3440   11.0910 O      12078 WAT       0.0459
  12079 WAT         9.6590   13.3440   11.3410 O      12079 WAT       0.0453
  12080 WAT         9.6590   13.5940   10.5910 O      12080 WAT       0.0460
  12081 WAT         9.6590   13.5940   10.8410 O      12081 WAT       0.0499
  12082 WAT         9.6590   13.5940   11.0910 O      12082 WAT       0.0505
  12083 WAT         9.6590   13.5940   11.3410 O      12083 WAT       0.0475
  12084 WAT         9.6590   13.8440   10.3410 O      12084 WAT       0.0485
  12085 WAT         9.6590   13.8440   10.5910 O      12085 WAT       0.0525
  12086 WAT         9.6590   13.8440   10.8410 O      12086 WAT       0.0540
  12087 WAT         9.6590   13.8440   11.0910 O      12087 WAT       0.0523
  12088 WAT         9.6590   13.8440   11.3410 O      12088 WAT       0.0478
  12089 WAT         9.6590   14.0940    9.8410 O      12089 WAT       0.0457
  12090 WAT         9.6590   14.0940   10.0910 O      12090 WAT       0.0501
  12091 WAT         9.6590   14.0940   10.3410 O      12091 WAT       0.0536
  12092 WAT         9.6590   14.0940   10.5910 O      12092 WAT       0.0551
  12093 WAT         9.6590   14.0940   10.8410 O      12093 WAT       0.0539
  12094 WAT         9.6590   14.0940   11.0910 O      12094 WAT       0.0501
  12095 WAT         9.6590   14.0940   12.8410 O      12095 WAT       0.0470
  12096 WAT         9.6590   14.0940   13.0910 O      12096 WAT       0.0464
  12097 WAT         9.6590   14.3440    9.3410 O      12097 WAT       0.0454
  12098 WAT         9.6590   14.3440    9.5910 O      12098 WAT       0.0477
  12099 WAT         9.6590   14.3440    9.8410 O      12099 WAT       0.0502
  12100 WAT         9.6590   14.3440   10.0910 O      12100 WAT       0.0520
  12101 WAT         9.6590   14.3440   10.3410 O      12101 WAT       0.0522
  12102 WAT         9.6590   14.3440   10.5910 O      12102 WAT       0.0507
  12103 WAT         9.6590   14.3440   10.8410 O      12103 WAT       0.0472
  12104 WAT         9.6590   14.3440   12.5910 O      12104 WAT       0.0506
  12105 WAT         9.6590   14.3440   12.8410 O      12105 WAT       0.0559
  12106 WAT         9.6590   14.3440   13.0910 O      12106 WAT       0.0568
  12107 WAT         9.6590   14.3440   13.3410 O      12107 WAT       0.0512
  12108 WAT         9.6590   14.3440   19.3410 O      12108 WAT       0.0503
  12109 WAT         9.6590   14.3440   19.5910 O      12109 WAT       0.0467
  12110 WAT         9.6590   14.5940    8.8410 O      12110 WAT       0.0468
  12111 WAT         9.6590   14.5940    9.0910 O      12111 WAT       0.0473
  12112 WAT         9.6590   14.5940    9.3410 O      12112 WAT       0.0472
  12113 WAT         9.6590   14.5940    9.5910 O      12113 WAT       0.0472
  12114 WAT         9.6590   14.5940    9.8410 O      12114 WAT       0.0469
  12115 WAT         9.6590   14.5940   10.0910 O      12115 WAT       0.0455
  12116 WAT         9.6590   14.5940   12.5910 O      12116 WAT       0.0570
  12117 WAT         9.6590   14.5940   12.8410 O      12117 WAT       0.0681
  12118 WAT         9.6590   14.5940   13.0910 O      12118 WAT       0.0730
  12119 WAT         9.6590   14.5940   13.3410 O      12119 WAT       0.0678
  12120 WAT         9.6590   14.5940   13.5910 O      12120 WAT       0.0538
  12121 WAT         9.6590   14.5940   15.5910 O      12121 WAT       0.0477
  12122 WAT         9.6590   14.5940   15.8410 O      12122 WAT       0.0526
  12123 WAT         9.6590   14.5940   16.0910 O      12123 WAT       0.0493
  12124 WAT         9.6590   14.8440    8.3410 O      12124 WAT       0.0454
  12125 WAT         9.6590   14.8440    8.5910 O      12125 WAT       0.0482
  12126 WAT         9.6590   14.8440    8.8410 O      12126 WAT       0.0481
  12127 WAT         9.6590   14.8440    9.0910 O      12127 WAT       0.0457
  12128 WAT         9.6590   14.8440   12.5910 O      12128 WAT       0.0592
  12129 WAT         9.6590   14.8440   12.8410 O      12129 WAT       0.0778
  12130 WAT         9.6590   14.8440   13.0910 O      12130 WAT       0.0892
  12131 WAT         9.6590   14.8440   13.3410 O      12131 WAT       0.0869
  12132 WAT         9.6590   14.8440   13.5910 O      12132 WAT       0.0711
  12133 WAT         9.6590   14.8440   13.8410 O      12133 WAT       0.0497
  12134 WAT         9.6590   14.8440   15.3410 O      12134 WAT       0.0464
  12135 WAT         9.6590   14.8440   15.5910 O      12135 WAT       0.0564
  12136 WAT         9.6590   14.8440   15.8410 O      12136 WAT       0.0583
  12137 WAT         9.6590   14.8440   16.0910 O      12137 WAT       0.0509
  12138 WAT         9.6590   15.0940    8.3410 O      12138 WAT       0.0466
  12139 WAT         9.6590   15.0940    8.5910 O      12139 WAT       0.0468
  12140 WAT         9.6590   15.0940   12.5910 O      12140 WAT       0.0528
  12141 WAT         9.6590   15.0940   12.8410 O      12141 WAT       0.0761
  12142 WAT         9.6590   15.0940   13.0910 O      12142 WAT       0.0935
  12143 WAT         9.6590   15.0940   13.3410 O      12143 WAT       0.0958
  12144 WAT         9.6590   15.0940   13.5910 O      12144 WAT       0.0816
  12145 WAT         9.6590   15.0940   13.8410 O      12145 WAT       0.0594
  12146 WAT         9.6590   15.0940   15.3410 O      12146 WAT       0.0549
  12147 WAT         9.6590   15.0940   15.5910 O      12147 WAT       0.0610
  12148 WAT         9.6590   15.0940   15.8410 O      12148 WAT       0.0574
  12149 WAT         9.6590   15.0940   16.0910 O      12149 WAT       0.0454
  12150 WAT         9.6590   15.3440   12.8410 O      12150 WAT       0.0594
  12151 WAT         9.6590   15.3440   13.0910 O      12151 WAT       0.0778
  12152 WAT         9.6590   15.3440   13.3410 O      12152 WAT       0.0838
  12153 WAT         9.6590   15.3440   13.5910 O      12153 WAT       0.0747
  12154 WAT         9.6590   15.3440   13.8410 O      12154 WAT       0.0573
  12155 WAT         9.6590   15.3440   15.0910 O      12155 WAT       0.0510
  12156 WAT         9.6590   15.3440   15.3410 O      12156 WAT       0.0592
  12157 WAT         9.6590   15.3440   15.5910 O      12157 WAT       0.0593
  12158 WAT         9.6590   15.3440   15.8410 O      12158 WAT       0.0500
  12159 WAT         9.6590   15.5940    7.8410 O      12159 WAT       0.0454
  12160 WAT         9.6590   15.5940   13.0910 O      12160 WAT       0.0489
  12161 WAT         9.6590   15.5940   13.3410 O      12161 WAT       0.0553
  12162 WAT         9.6590   15.5940   13.5910 O      12162 WAT       0.0518
  12163 WAT         9.6590   15.5940   15.0910 O      12163 WAT       0.0523
  12164 WAT         9.6590   15.5940   15.3410 O      12164 WAT       0.0558
  12165 WAT         9.6590   15.5940   15.5910 O      12165 WAT       0.0506
  12166 WAT         9.6590   15.5940   26.8410 O      12166 WAT       0.0948
  12167 WAT         9.6590   15.5940   27.0910 O      12167 WAT       0.1501
  12168 WAT         9.6590   15.5940   27.3410 O      12168 WAT       0.1485
  12169 WAT         9.6590   15.5940   27.5910 O      12169 WAT       0.0914
  12170 WAT         9.6590   15.8440    7.5910 O      12170 WAT       0.0478
  12171 WAT         9.6590   15.8440    7.8410 O      12171 WAT       0.0487
  12172 WAT         9.6590   15.8440   26.5910 O      12172 WAT       0.0951
  12173 WAT         9.6590   15.8440   26.8410 O      12173 WAT       0.2414
  12174 WAT         9.6590   15.8440   27.0910 O      12174 WAT       0.3843
  12175 WAT         9.6590   15.8440   27.3410 O      12175 WAT       0.3836
  12176 WAT         9.6590   15.8440   27.5910 O      12176 WAT       0.2391
  12177 WAT         9.6590   15.8440   27.8410 O      12177 WAT       0.0923
  12178 WAT         9.6590   16.0940    7.3410 O      12178 WAT       0.0471
  12179 WAT         9.6590   16.0940    7.5910 O      12179 WAT       0.0524
  12180 WAT         9.6590   16.0940    7.8410 O      12180 WAT       0.0493
  12181 WAT         9.6590   16.0940   26.5910 O      12181 WAT       0.1523
  12182 WAT         9.6590   16.0940   26.8410 O      12182 WAT       0.3891
  12183 WAT         9.6590   16.0940   27.0910 O      12183 WAT       0.6253
  12184 WAT         9.6590   16.0940   27.3410 O      12184 WAT       0.6296
  12185 WAT         9.6590   16.0940   27.5910 O      12185 WAT       0.3956
  12186 WAT         9.6590   16.0940   27.8410 O      12186 WAT       0.1544
  12187 WAT         9.6590   16.3440    7.3410 O      12187 WAT       0.0499
  12188 WAT         9.6590   16.3440    7.5910 O      12188 WAT       0.0528
  12189 WAT         9.6590   16.3440    7.8410 O      12189 WAT       0.0456
  12190 WAT         9.6590   16.3440   26.5910 O      12190 WAT       0.1540
  12191 WAT         9.6590   16.3440   26.8410 O      12191 WAT       0.3969
  12192 WAT         9.6590   16.3440   27.0910 O      12192 WAT       0.6438
  12193 WAT         9.6590   16.3440   27.3410 O      12193 WAT       0.6538
  12194 WAT         9.6590   16.3440   27.5910 O      12194 WAT       0.4141
  12195 WAT         9.6590   16.3440   27.8410 O      12195 WAT       0.1628
  12196 WAT         9.6590   16.5940    7.3410 O      12196 WAT       0.0491
  12197 WAT         9.6590   16.5940    7.5910 O      12197 WAT       0.0488
  12198 WAT         9.6590   16.5940   26.5910 O      12198 WAT       0.0978
  12199 WAT         9.6590   16.5940   26.8410 O      12199 WAT       0.2551
  12200 WAT         9.6590   16.5940   27.0910 O      12200 WAT       0.4175
  12201 WAT         9.6590   16.5940   27.3410 O      12201 WAT       0.4277
  12202 WAT         9.6590   16.5940   27.5910 O      12202 WAT       0.2730
  12203 WAT         9.6590   16.5940   27.8410 O      12203 WAT       0.1078
  12204 WAT         9.6590   16.8440    7.3410 O      12204 WAT       0.0457
  12205 WAT         9.6590   16.8440   26.8410 O      12205 WAT       0.1025
  12206 WAT         9.6590   16.8440   27.0910 O      12206 WAT       0.1697
  12207 WAT         9.6590   16.8440   27.3410 O      12207 WAT       0.1753
  12208 WAT         9.6590   16.8440   27.5910 O      12208 WAT       0.1125
  12209 WAT         9.6590   18.3440    7.3410 O      12209 WAT       0.0478
  12210 WAT         9.6590   18.3440    7.5910 O      12210 WAT       0.0489
  12211 WAT         9.6590   18.5940    7.0910 O      12211 WAT       0.0551
  12212 WAT         9.6590   18.5940    7.3410 O      12212 WAT       0.0720
  12213 WAT         9.6590   18.5940    7.5910 O      12213 WAT       0.0782
  12214 WAT         9.6590   18.5940    7.8410 O      12214 WAT       0.0665
  12215 WAT         9.6590   18.8440    6.8410 O      12215 WAT       0.0478
  12216 WAT         9.6590   18.8440    7.0910 O      12216 WAT       0.0710
  12217 WAT         9.6590   18.8440    7.3410 O      12217 WAT       0.0946
  12218 WAT         9.6590   18.8440    7.5910 O      12218 WAT       0.1069
  12219 WAT         9.6590   18.8440    7.8410 O      12219 WAT       0.0964
  12220 WAT         9.6590   18.8440    8.0910 O      12220 WAT       0.0657
  12221 WAT         9.6590   19.0940    6.8410 O      12221 WAT       0.0533
  12222 WAT         9.6590   19.0940    7.0910 O      12222 WAT       0.0781
  12223 WAT         9.6590   19.0940    7.3410 O      12223 WAT       0.1047
  12224 WAT         9.6590   19.0940    7.5910 O      12224 WAT       0.1212
  12225 WAT         9.6590   19.0940    7.8410 O      12225 WAT       0.1135
  12226 WAT         9.6590   19.0940    8.0910 O      12226 WAT       0.0813
  12227 WAT         9.6590   19.3440    6.8410 O      12227 WAT       0.0518
  12228 WAT         9.6590   19.3440    7.0910 O      12228 WAT       0.0737
  12229 WAT         9.6590   19.3440    7.3410 O      12229 WAT       0.0975
  12230 WAT         9.6590   19.3440    7.5910 O      12230 WAT       0.1134
  12231 WAT         9.6590   19.3440    7.8410 O      12231 WAT       0.1080
  12232 WAT         9.6590   19.3440    8.0910 O      12232 WAT       0.0794
  12233 WAT         9.6590   19.5940    6.8410 O      12233 WAT       0.0452
  12234 WAT         9.6590   19.5940    7.0910 O      12234 WAT       0.0614
  12235 WAT         9.6590   19.5940    7.3410 O      12235 WAT       0.0785
  12236 WAT         9.6590   19.5940    7.5910 O      12236 WAT       0.0892
  12237 WAT         9.6590   19.5940    7.8410 O      12237 WAT       0.0841
  12238 WAT         9.6590   19.5940    8.0910 O      12238 WAT       0.0620
  12239 WAT         9.6590   19.8440    7.0910 O      12239 WAT       0.0480
  12240 WAT         9.6590   19.8440    7.3410 O      12240 WAT       0.0580
  12241 WAT         9.6590   19.8440    7.5910 O      12241 WAT       0.0622
  12242 WAT         9.6590   19.8440    7.8410 O      12242 WAT       0.0560
  12243 WAT         9.6590   21.0940    5.0910 O      12243 WAT       0.0458
  12244 WAT         9.6590   21.0940    5.3410 O      12244 WAT       0.0585
  12245 WAT         9.6590   21.0940    5.5910 O      12245 WAT       0.0653
  12246 WAT         9.6590   21.0940    5.8410 O      12246 WAT       0.0624
  12247 WAT         9.6590   21.0940    6.0910 O      12247 WAT       0.0522
  12248 WAT         9.6590   21.3440    5.0910 O      12248 WAT       0.0533
  12249 WAT         9.6590   21.3440    5.3410 O      12249 WAT       0.0737
  12250 WAT         9.6590   21.3440    5.5910 O      12250 WAT       0.0886
  12251 WAT         9.6590   21.3440    5.8410 O      12251 WAT       0.0907
  12252 WAT         9.6590   21.3440    6.0910 O      12252 WAT       0.0795
  12253 WAT         9.6590   21.3440    6.3410 O      12253 WAT       0.0622
  12254 WAT         9.6590   21.3440    6.5910 O      12254 WAT       0.0470
  12255 WAT         9.6590   21.5940    5.0910 O      12255 WAT       0.0514
  12256 WAT         9.6590   21.5940    5.3410 O      12256 WAT       0.0762
  12257 WAT         9.6590   21.5940    5.5910 O      12257 WAT       0.0987
  12258 WAT         9.6590   21.5940    5.8410 O      12258 WAT       0.1089
  12259 WAT         9.6590   21.5940    6.0910 O      12259 WAT       0.1023
  12260 WAT         9.6590   21.5940    6.3410 O      12260 WAT       0.0838
  12261 WAT         9.6590   21.5940    6.5910 O      12261 WAT       0.0631
  12262 WAT         9.6590   21.5940    6.8410 O      12262 WAT       0.0463
  12263 WAT         9.6590   21.8440    5.3410 O      12263 WAT       0.0642
  12264 WAT         9.6590   21.8440    5.5910 O      12264 WAT       0.0894
  12265 WAT         9.6590   21.8440    5.8410 O      12265 WAT       0.1064
  12266 WAT         9.6590   21.8440    6.0910 O      12266 WAT       0.1079
  12267 WAT         9.6590   21.8440    6.3410 O      12267 WAT       0.0944
  12268 WAT         9.6590   21.8440    6.5910 O      12268 WAT       0.0737
  12269 WAT         9.6590   21.8440    6.8410 O      12269 WAT       0.0531
  12270 WAT         9.6590   21.8440   16.5910 O      12270 WAT       0.0489
  12271 WAT         9.6590   21.8440   16.8410 O      12271 WAT       0.0678
  12272 WAT         9.6590   21.8440   17.0910 O      12272 WAT       0.0604
  12273 WAT         9.6590   22.0940    5.3410 O      12273 WAT       0.0460
  12274 WAT         9.6590   22.0940    5.5910 O      12274 WAT       0.0686
  12275 WAT         9.6590   22.0940    5.8410 O      12275 WAT       0.0876
  12276 WAT         9.6590   22.0940    6.0910 O      12276 WAT       0.0954
  12277 WAT         9.6590   22.0940    6.3410 O      12277 WAT       0.0888
  12278 WAT         9.6590   22.0940    6.5910 O      12278 WAT       0.0715
  12279 WAT         9.6590   22.0940    6.8410 O      12279 WAT       0.0508
  12280 WAT         9.6590   22.0940   16.5910 O      12280 WAT       0.0689
  12281 WAT         9.6590   22.0940   16.8410 O      12281 WAT       0.0954
  12282 WAT         9.6590   22.0940   17.0910 O      12282 WAT       0.0857
  12283 WAT         9.6590   22.0940   17.3410 O      12283 WAT       0.0501
  12284 WAT         9.6590   22.3440    2.5910 O      12284 WAT       0.0495
  12285 WAT         9.6590   22.3440    2.8410 O      12285 WAT       0.0495
  12286 WAT         9.6590   22.3440    5.5910 O      12286 WAT       0.0504
  12287 WAT         9.6590   22.3440    5.8410 O      12287 WAT       0.0684
  12288 WAT         9.6590   22.3440    6.0910 O      12288 WAT       0.0779
  12289 WAT         9.6590   22.3440    6.3410 O      12289 WAT       0.0739
  12290 WAT         9.6590   22.3440    6.5910 O      12290 WAT       0.0585
  12291 WAT         9.6590   22.3440   16.5910 O      12291 WAT       0.0614
  12292 WAT         9.6590   22.3440   16.8410 O      12292 WAT       0.0855
  12293 WAT         9.6590   22.3440   17.0910 O      12293 WAT       0.0772
  12294 WAT         9.6590   22.3440   17.3410 O      12294 WAT       0.0453
  12295 WAT         9.6590   22.5940    2.5910 O      12295 WAT       0.0660
  12296 WAT         9.6590   22.5940    2.8410 O      12296 WAT       0.0689
  12297 WAT         9.6590   22.5940    3.0910 O      12297 WAT       0.0658
  12298 WAT         9.6590   22.5940    3.3410 O      12298 WAT       0.0568
  12299 WAT         9.6590   22.5940    5.8410 O      12299 WAT       0.0609
  12300 WAT         9.6590   22.5940    6.0910 O      12300 WAT       0.0681
  12301 WAT         9.6590   22.5940    6.3410 O      12301 WAT       0.0611
  12302 WAT         9.6590   22.5940   16.8410 O      12302 WAT       0.0485
  12303 WAT         9.6590   22.8440    2.5910 O      12303 WAT       0.0765
  12304 WAT         9.6590   22.8440    2.8410 O      12304 WAT       0.0835
  12305 WAT         9.6590   22.8440    3.0910 O      12305 WAT       0.0844
  12306 WAT         9.6590   22.8440    3.3410 O      12306 WAT       0.0770
  12307 WAT         9.6590   22.8440    3.5910 O      12307 WAT       0.0609
  12308 WAT         9.6590   22.8440    5.5910 O      12308 WAT       0.0504
  12309 WAT         9.6590   22.8440    5.8410 O      12309 WAT       0.0666
  12310 WAT         9.6590   22.8440    6.0910 O      12310 WAT       0.0694
  12311 WAT         9.6590   22.8440    6.3410 O      12311 WAT       0.0563
  12312 WAT         9.6590   23.0940    2.5910 O      12312 WAT       0.0770
  12313 WAT         9.6590   23.0940    2.8410 O      12313 WAT       0.0870
  12314 WAT         9.6590   23.0940    3.0910 O      12314 WAT       0.0914
  12315 WAT         9.6590   23.0940    3.3410 O      12315 WAT       0.0870
  12316 WAT         9.6590   23.0940    3.5910 O      12316 WAT       0.0723
  12317 WAT         9.6590   23.0940    3.8410 O      12317 WAT       0.0527
  12318 WAT         9.6590   23.0940    5.5910 O      12318 WAT       0.0629
  12319 WAT         9.6590   23.0940    5.8410 O      12319 WAT       0.0777
  12320 WAT         9.6590   23.0940    6.0910 O      12320 WAT       0.0753
  12321 WAT         9.6590   23.0940    6.3410 O      12321 WAT       0.0560
  12322 WAT         9.6590   23.3440    2.5910 O      12322 WAT       0.0659
  12323 WAT         9.6590   23.3440    2.8410 O      12323 WAT       0.0765
  12324 WAT         9.6590   23.3440    3.0910 O      12324 WAT       0.0830
  12325 WAT         9.6590   23.3440    3.3410 O      12325 WAT       0.0823
  12326 WAT         9.6590   23.3440    3.5910 O      12326 WAT       0.0727
  12327 WAT         9.6590   23.3440    3.8410 O      12327 WAT       0.0590
  12328 WAT         9.6590   23.3440    4.0910 O      12328 WAT       0.0486
  12329 WAT         9.6590   23.3440    5.3410 O      12329 WAT       0.0554
  12330 WAT         9.6590   23.3440    5.5910 O      12330 WAT       0.0730
  12331 WAT         9.6590   23.3440    5.8410 O      12331 WAT       0.0834
  12332 WAT         9.6590   23.3440    6.0910 O      12332 WAT       0.0760
  12333 WAT         9.6590   23.3440    6.3410 O      12333 WAT       0.0534
  12334 WAT         9.6590   23.5940    2.5910 O      12334 WAT       0.0470
  12335 WAT         9.6590   23.5940    2.8410 O      12335 WAT       0.0564
  12336 WAT         9.6590   23.5940    3.0910 O      12336 WAT       0.0642
  12337 WAT         9.6590   23.5940    3.3410 O      12337 WAT       0.0678
  12338 WAT         9.6590   23.5940    3.5910 O      12338 WAT       0.0655
  12339 WAT         9.6590   23.5940    3.8410 O      12339 WAT       0.0616
  12340 WAT         9.6590   23.5940    4.0910 O      12340 WAT       0.0632
  12341 WAT         9.6590   23.5940    4.3410 O      12341 WAT       0.0700
  12342 WAT         9.6590   23.5940    4.5910 O      12342 WAT       0.0738
  12343 WAT         9.6590   23.5940    4.8410 O      12343 WAT       0.0697
  12344 WAT         9.6590   23.5940    5.0910 O      12344 WAT       0.0640
  12345 WAT         9.6590   23.5940    5.3410 O      12345 WAT       0.0660
  12346 WAT         9.6590   23.5940    5.5910 O      12346 WAT       0.0743
  12347 WAT         9.6590   23.5940    5.8410 O      12347 WAT       0.0773
  12348 WAT         9.6590   23.5940    6.0910 O      12348 WAT       0.0666
  12349 WAT         9.6590   23.5940    6.3410 O      12349 WAT       0.0455
  12350 WAT         9.6590   23.8440    3.3410 O      12350 WAT       0.0524
  12351 WAT         9.6590   23.8440    3.5910 O      12351 WAT       0.0573
  12352 WAT         9.6590   23.8440    3.8410 O      12352 WAT       0.0641
  12353 WAT         9.6590   23.8440    4.0910 O      12353 WAT       0.0790
  12354 WAT         9.6590   23.8440    4.3410 O      12354 WAT       0.0984
  12355 WAT         9.6590   23.8440    4.5910 O      12355 WAT       0.1075
  12356 WAT         9.6590   23.8440    4.8410 O      12356 WAT       0.0983
  12357 WAT         9.6590   23.8440    5.0910 O      12357 WAT       0.0803
  12358 WAT         9.6590   23.8440    5.3410 O      12358 WAT       0.0687
  12359 WAT         9.6590   23.8440    5.5910 O      12359 WAT       0.0654
  12360 WAT         9.6590   23.8440    5.8410 O      12360 WAT       0.0615
  12361 WAT         9.6590   23.8440    6.0910 O      12361 WAT       0.0507
  12362 WAT         9.6590   24.0940    3.5910 O      12362 WAT       0.0517
  12363 WAT         9.6590   24.0940    3.8410 O      12363 WAT       0.0663
  12364 WAT         9.6590   24.0940    4.0910 O      12364 WAT       0.0898
  12365 WAT         9.6590   24.0940    4.3410 O      12365 WAT       0.1149
  12366 WAT         9.6590   24.0940    4.5910 O      12366 WAT       0.1238
  12367 WAT         9.6590   24.0940    4.8410 O      12367 WAT       0.1081
  12368 WAT         9.6590   24.0940    5.0910 O      12368 WAT       0.0807
  12369 WAT         9.6590   24.0940    5.3410 O      12369 WAT       0.0597
  12370 WAT         9.6590   24.0940    5.5910 O      12370 WAT       0.0492
  12371 WAT         9.6590   24.3440    3.5910 O      12371 WAT       0.0470
  12372 WAT         9.6590   24.3440    3.8410 O      12372 WAT       0.0636
  12373 WAT         9.6590   24.3440    4.0910 O      12373 WAT       0.0863
  12374 WAT         9.6590   24.3440    4.3410 O      12374 WAT       0.1067
  12375 WAT         9.6590   24.3440    4.5910 O      12375 WAT       0.1095
  12376 WAT         9.6590   24.3440    4.8410 O      12376 WAT       0.0903
  12377 WAT         9.6590   24.3440    5.0910 O      12377 WAT       0.0626
  12378 WAT         9.6590   24.5940    3.8410 O      12378 WAT       0.0527
  12379 WAT         9.6590   24.5940    4.0910 O      12379 WAT       0.0669
  12380 WAT         9.6590   24.5940    4.3410 O      12380 WAT       0.0767
  12381 WAT         9.6590   24.5940    4.5910 O      12381 WAT       0.0731
  12382 WAT         9.6590   24.5940    4.8410 O      12382 WAT       0.0563
  12383 WAT         9.6590   24.5940    6.8410 O      12383 WAT       0.0462
  12384 WAT         9.6590   24.5940    7.0910 O      12384 WAT       0.0604
  12385 WAT         9.6590   24.5940    7.3410 O      12385 WAT       0.0604
  12386 WAT         9.6590   24.5940    7.5910 O      12386 WAT       0.0452
  12387 WAT         9.6590   24.8440    6.8410 O      12387 WAT       0.0858
  12388 WAT         9.6590   24.8440    7.0910 O      12388 WAT       0.1241
  12389 WAT         9.6590   24.8440    7.3410 O      12389 WAT       0.1334
  12390 WAT         9.6590   24.8440    7.5910 O      12390 WAT       0.1073
  12391 WAT         9.6590   24.8440    7.8410 O      12391 WAT       0.0647
  12392 WAT         9.6590   25.0940    6.5910 O      12392 WAT       0.0573
  12393 WAT         9.6590   25.0940    6.8410 O      12393 WAT       0.1206
  12394 WAT         9.6590   25.0940    7.0910 O      12394 WAT       0.1846
  12395 WAT         9.6590   25.0940    7.3410 O      12395 WAT       0.2088
  12396 WAT         9.6590   25.0940    7.5910 O      12396 WAT       0.1775
  12397 WAT         9.6590   25.0940    7.8410 O      12397 WAT       0.1144
  12398 WAT         9.6590   25.0940    8.0910 O      12398 WAT       0.0553
  12399 WAT         9.6590   25.3440    6.5910 O      12399 WAT       0.0531
  12400 WAT         9.6590   25.3440    6.8410 O      12400 WAT       0.1177
  12401 WAT         9.6590   25.3440    7.0910 O      12401 WAT       0.1884
  12402 WAT         9.6590   25.3440    7.3410 O      12402 WAT       0.2235
  12403 WAT         9.6590   25.3440    7.5910 O      12403 WAT       0.2006
  12404 WAT         9.6590   25.3440    7.8410 O      12404 WAT       0.1376
  12405 WAT         9.6590   25.3440    8.0910 O      12405 WAT       0.0715
  12406 WAT         9.6590   25.5940    6.8410 O      12406 WAT       0.0763
  12407 WAT         9.6590   25.5940    7.0910 O      12407 WAT       0.1279
  12408 WAT         9.6590   25.5940    7.3410 O      12408 WAT       0.1597
  12409 WAT         9.6590   25.5940    7.5910 O      12409 WAT       0.1518
  12410 WAT         9.6590   25.5940    7.8410 O      12410 WAT       0.1109
  12411 WAT         9.6590   25.5940    8.0910 O      12411 WAT       0.0618
  12412 WAT         9.6590   25.8440    7.0910 O      12412 WAT       0.0561
  12413 WAT         9.6590   25.8440    7.3410 O      12413 WAT       0.0745
  12414 WAT         9.6590   25.8440    7.5910 O      12414 WAT       0.0754
  12415 WAT         9.6590   25.8440    7.8410 O      12415 WAT       0.0588
  12416 WAT         9.9090    8.3440   18.3410 O      12416 WAT       0.0552
  12417 WAT         9.9090    8.3440   18.5910 O      12417 WAT       0.0792
  12418 WAT         9.9090    8.3440   18.8410 O      12418 WAT       0.0905
  12419 WAT         9.9090    8.3440   19.0910 O      12419 WAT       0.0789
  12420 WAT         9.9090    8.3440   19.3410 O      12420 WAT       0.0509
  12421 WAT         9.9090    8.5940   18.3410 O      12421 WAT       0.0461
  12422 WAT         9.9090    8.5940   18.5910 O      12422 WAT       0.0597
  12423 WAT         9.9090    8.5940   18.8410 O      12423 WAT       0.0619
  12424 WAT         9.9090    8.5940   19.0910 O      12424 WAT       0.0491
  12425 WAT         9.9090   11.5940   16.8410 O      12425 WAT       0.0470
  12426 WAT         9.9090   11.5940   17.0910 O      12426 WAT       0.0520
  12427 WAT         9.9090   11.5940   17.3410 O      12427 WAT       0.0515
  12428 WAT         9.9090   11.5940   17.5910 O      12428 WAT       0.0502
  12429 WAT         9.9090   11.5940   17.8410 O      12429 WAT       0.0513
  12430 WAT         9.9090   11.5940   18.0910 O      12430 WAT       0.0523
  12431 WAT         9.9090   11.5940   18.3410 O      12431 WAT       0.0481
  12432 WAT         9.9090   11.8440   16.8410 O      12432 WAT       0.0464
  12433 WAT         9.9090   11.8440   17.0910 O      12433 WAT       0.0563
  12434 WAT         9.9090   11.8440   17.3410 O      12434 WAT       0.0631
  12435 WAT         9.9090   11.8440   17.5910 O      12435 WAT       0.0696
  12436 WAT         9.9090   11.8440   17.8410 O      12436 WAT       0.0764
  12437 WAT         9.9090   11.8440   18.0910 O      12437 WAT       0.0788
  12438 WAT         9.9090   11.8440   18.3410 O      12438 WAT       0.0710
  12439 WAT         9.9090   11.8440   18.5910 O      12439 WAT       0.0525
  12440 WAT         9.9090   12.0940   17.0910 O      12440 WAT       0.0548
  12441 WAT         9.9090   12.0940   17.3410 O      12441 WAT       0.0704
  12442 WAT         9.9090   12.0940   17.5910 O      12442 WAT       0.0870
  12443 WAT         9.9090   12.0940   17.8410 O      12443 WAT       0.1006
  12444 WAT         9.9090   12.0940   18.0910 O      12444 WAT       0.1045
  12445 WAT         9.9090   12.0940   18.3410 O      12445 WAT       0.0935
  12446 WAT         9.9090   12.0940   18.5910 O      12446 WAT       0.0682
  12447 WAT         9.9090   12.3440   17.0910 O      12447 WAT       0.0470
  12448 WAT         9.9090   12.3440   17.3410 O      12448 WAT       0.0686
  12449 WAT         9.9090   12.3440   17.5910 O      12449 WAT       0.0929
  12450 WAT         9.9090   12.3440   17.8410 O      12450 WAT       0.1123
  12451 WAT         9.9090   12.3440   18.0910 O      12451 WAT       0.1190
  12452 WAT         9.9090   12.3440   18.3410 O      12452 WAT       0.1081
  12453 WAT         9.9090   12.3440   18.5910 O      12453 WAT       0.0796
  12454 WAT         9.9090   12.5940   17.3410 O      12454 WAT       0.0562
  12455 WAT         9.9090   12.5940   17.5910 O      12455 WAT       0.0817
  12456 WAT         9.9090   12.5940   17.8410 O      12456 WAT       0.1037
  12457 WAT         9.9090   12.5940   18.0910 O      12457 WAT       0.1140
  12458 WAT         9.9090   12.5940   18.3410 O      12458 WAT       0.1062
  12459 WAT         9.9090   12.5940   18.5910 O      12459 WAT       0.0793
  12460 WAT         9.9090   12.8440   17.5910 O      12460 WAT       0.0588
  12461 WAT         9.9090   12.8440   17.8410 O      12461 WAT       0.0782
  12462 WAT         9.9090   12.8440   18.0910 O      12462 WAT       0.0893
  12463 WAT         9.9090   12.8440   18.3410 O      12463 WAT       0.0853
  12464 WAT         9.9090   12.8440   18.5910 O      12464 WAT       0.0644
  12465 WAT         9.9090   13.0940   11.0910 O      12465 WAT       0.0465
  12466 WAT         9.9090   13.0940   11.3410 O      12466 WAT       0.0476
  12467 WAT         9.9090   13.0940   11.5910 O      12467 WAT       0.0459
  12468 WAT         9.9090   13.0940   17.8410 O      12468 WAT       0.0495
  12469 WAT         9.9090   13.0940   18.0910 O      12469 WAT       0.0577
  12470 WAT         9.9090   13.0940   18.3410 O      12470 WAT       0.0560
  12471 WAT         9.9090   13.3440   10.5910 O      12471 WAT       0.0466
  12472 WAT         9.9090   13.3440   10.8410 O      12472 WAT       0.0515
  12473 WAT         9.9090   13.3440   11.0910 O      12473 WAT       0.0534
  12474 WAT         9.9090   13.3440   11.3410 O      12474 WAT       0.0516
  12475 WAT         9.9090   13.3440   11.5910 O      12475 WAT       0.0474
  12476 WAT         9.9090   13.5940   10.3410 O      12476 WAT       0.0495
  12477 WAT         9.9090   13.5940   10.5910 O      12477 WAT       0.0554
  12478 WAT         9.9090   13.5940   10.8410 O      12478 WAT       0.0586
  12479 WAT         9.9090   13.5940   11.0910 O      12479 WAT       0.0580
  12480 WAT         9.9090   13.5940   11.3410 O      12480 WAT       0.0537
  12481 WAT         9.9090   13.5940   11.5910 O      12481 WAT       0.0481
  12482 WAT         9.9090   13.5940   12.5910 O      12482 WAT       0.0468
  12483 WAT         9.9090   13.5940   12.8410 O      12483 WAT       0.0471
  12484 WAT         9.9090   13.8440   10.0910 O      12484 WAT       0.0505
  12485 WAT         9.9090   13.8440   10.3410 O      12485 WAT       0.0566
  12486 WAT         9.9090   13.8440   10.5910 O      12486 WAT       0.0604
  12487 WAT         9.9090   13.8440   10.8410 O      12487 WAT       0.0611
  12488 WAT         9.9090   13.8440   11.0910 O      12488 WAT       0.0583
  12489 WAT         9.9090   13.8440   11.3410 O      12489 WAT       0.0529
  12490 WAT         9.9090   13.8440   11.5910 O      12490 WAT       0.0476
  12491 WAT         9.9090   13.8440   12.3410 O      12491 WAT       0.0477
  12492 WAT         9.9090   13.8440   12.5910 O      12492 WAT       0.0505
  12493 WAT         9.9090   13.8440   12.8410 O      12493 WAT       0.0512
  12494 WAT         9.9090   13.8440   13.0910 O      12494 WAT       0.0485
  12495 WAT         9.9090   14.0940    9.5910 O      12495 WAT       0.0454
  12496 WAT         9.9090   14.0940    9.8410 O      12496 WAT       0.0499
  12497 WAT         9.9090   14.0940   10.0910 O      12497 WAT       0.0549
  12498 WAT         9.9090   14.0940   10.3410 O      12498 WAT       0.0582
  12499 WAT         9.9090   14.0940   10.5910 O      12499 WAT       0.0589
  12500 WAT         9.9090   14.0940   10.8410 O      12500 WAT       0.0570
  12501 WAT         9.9090   14.0940   11.0910 O      12501 WAT       0.0527
  12502 WAT         9.9090   14.0940   11.3410 O      12502 WAT       0.0475
  12503 WAT         9.9090   14.0940   12.0910 O      12503 WAT       0.0453
  12504 WAT         9.9090   14.0940   12.3410 O      12504 WAT       0.0500
  12505 WAT         9.9090   14.0940   12.5910 O      12505 WAT       0.0546
  12506 WAT         9.9090   14.0940   12.8410 O      12506 WAT       0.0569
  12507 WAT         9.9090   14.0940   13.0910 O      12507 WAT       0.0550
  12508 WAT         9.9090   14.0940   13.3410 O      12508 WAT       0.0481
  12509 WAT         9.9090   14.0940   15.5910 O      12509 WAT       0.0505
  12510 WAT         9.9090   14.0940   15.8410 O      12510 WAT       0.0552
  12511 WAT         9.9090   14.0940   16.0910 O      12511 WAT       0.0517
  12512 WAT         9.9090   14.3440    9.5910 O      12512 WAT       0.0471
  12513 WAT         9.9090   14.3440    9.8410 O      12513 WAT       0.0498
  12514 WAT         9.9090   14.3440   10.0910 O      12514 WAT       0.0516
  12515 WAT         9.9090   14.3440   10.3410 O      12515 WAT       0.0515
  12516 WAT         9.9090   14.3440   10.5910 O      12516 WAT       0.0494
  12517 WAT         9.9090   14.3440   10.8410 O      12517 WAT       0.0457
  12518 WAT         9.9090   14.3440   12.3410 O      12518 WAT       0.0504
  12519 WAT         9.9090   14.3440   12.5910 O      12519 WAT       0.0593
  12520 WAT         9.9090   14.3440   12.8410 O      12520 WAT       0.0658
  12521 WAT         9.9090   14.3440   13.0910 O      12521 WAT       0.0668
  12522 WAT         9.9090   14.3440   13.3410 O      12522 WAT       0.0602
  12523 WAT         9.9090   14.3440   13.5910 O      12523 WAT       0.0472
  12524 WAT         9.9090   14.3440   15.3410 O      12524 WAT       0.0473
  12525 WAT         9.9090   14.3440   15.5910 O      12525 WAT       0.0597
  12526 WAT         9.9090   14.3440   15.8410 O      12526 WAT       0.0645
  12527 WAT         9.9090   14.3440   16.0910 O      12527 WAT       0.0596
  12528 WAT         9.9090   14.3440   16.3410 O      12528 WAT       0.0482
  12529 WAT         9.9090   14.5940   12.3410 O      12529 WAT       0.0473
  12530 WAT         9.9090   14.5940   12.5910 O      12530 WAT       0.0622
  12531 WAT         9.9090   14.5940   12.8410 O      12531 WAT       0.0759
  12532 WAT         9.9090   14.5940   13.0910 O      12532 WAT       0.0829
  12533 WAT         9.9090   14.5940   13.3410 O      12533 WAT       0.0786
  12534 WAT         9.9090   14.5940   13.5910 O      12534 WAT       0.0637
  12535 WAT         9.9090   14.5940   15.3410 O      12535 WAT       0.0537
  12536 WAT         9.9090   14.5940   15.5910 O      12536 WAT       0.0663
  12537 WAT         9.9090   14.5940   15.8410 O      12537 WAT       0.0699
  12538 WAT         9.9090   14.5940   16.0910 O      12538 WAT       0.0625
  12539 WAT         9.9090   14.5940   16.3410 O      12539 WAT       0.0482
  12540 WAT         9.9090   14.8440   12.5910 O      12540 WAT       0.0587
  12541 WAT         9.9090   14.8440   12.8410 O      12541 WAT       0.0796
  12542 WAT         9.9090   14.8440   13.0910 O      12542 WAT       0.0945
  12543 WAT         9.9090   14.8440   13.3410 O      12543 WAT       0.0950
  12544 WAT         9.9090   14.8440   13.5910 O      12544 WAT       0.0800
  12545 WAT         9.9090   14.8440   13.8410 O      12545 WAT       0.0576
  12546 WAT         9.9090   14.8440   15.0910 O      12546 WAT       0.0453
  12547 WAT         9.9090   14.8440   15.3410 O      12547 WAT       0.0593
  12548 WAT         9.9090   14.8440   15.5910 O      12548 WAT       0.0693
  12549 WAT         9.9090   14.8440   15.8410 O      12549 WAT       0.0690
  12550 WAT         9.9090   14.8440   16.0910 O      12550 WAT       0.0580
  12551 WAT         9.9090   15.0940   12.5910 O      12551 WAT       0.0464
  12552 WAT         9.9090   15.0940   12.8410 O      12552 WAT       0.0700
  12553 WAT         9.9090   15.0940   13.0910 O      12553 WAT       0.0898
  12554 WAT         9.9090   15.0940   13.3410 O      12554 WAT       0.0956
  12555 WAT         9.9090   15.0940   13.5910 O      12555 WAT       0.0842
  12556 WAT         9.9090   15.0940   13.8410 O      12556 WAT       0.0635
  12557 WAT         9.9090   15.0940   14.0910 O      12557 WAT       0.0453
  12558 WAT         9.9090   15.0940   15.0910 O      12558 WAT       0.0528
  12559 WAT         9.9090   15.0940   15.3410 O      12559 WAT       0.0636
  12560 WAT         9.9090   15.0940   15.5910 O      12560 WAT       0.0679
  12561 WAT         9.9090   15.0940   15.8410 O      12561 WAT       0.0617
  12562 WAT         9.9090   15.0940   16.0910 O      12562 WAT       0.0471
  12563 WAT         9.9090   15.3440   12.8410 O      12563 WAT       0.0483
  12564 WAT         9.9090   15.3440   13.0910 O      12564 WAT       0.0664
  12565 WAT         9.9090   15.3440   13.3410 O      12565 WAT       0.0745
  12566 WAT         9.9090   15.3440   13.5910 O      12566 WAT       0.0688
  12567 WAT         9.9090   15.3440   13.8410 O      12567 WAT       0.0550
  12568 WAT         9.9090   15.3440   14.8410 O      12568 WAT       0.0486
  12569 WAT         9.9090   15.3440   15.0910 O      12569 WAT       0.0581
  12570 WAT         9.9090   15.3440   15.3410 O      12570 WAT       0.0641
  12571 WAT         9.9090   15.3440   15.5910 O      12571 WAT       0.0617
  12572 WAT         9.9090   15.3440   15.8410 O      12572 WAT       0.0500
  12573 WAT         9.9090   15.5940   14.8410 O      12573 WAT       0.0477
  12574 WAT         9.9090   15.5940   15.0910 O      12574 WAT       0.0560
  12575 WAT         9.9090   15.5940   15.3410 O      12575 WAT       0.0577
  12576 WAT         9.9090   15.5940   15.5910 O      12576 WAT       0.0502
  12577 WAT         9.9090   15.5940   26.8410 O      12577 WAT       0.0606
  12578 WAT         9.9090   15.5940   27.0910 O      12578 WAT       0.1011
  12579 WAT         9.9090   15.5940   27.3410 O      12579 WAT       0.1043
  12580 WAT         9.9090   15.5940   27.5910 O      12580 WAT       0.0664
  12581 WAT         9.9090   15.8440    7.5910 O      12581 WAT       0.0475
  12582 WAT         9.9090   15.8440   26.5910 O      12582 WAT       0.0579
  12583 WAT         9.9090   15.8440   26.8410 O      12583 WAT       0.1566
  12584 WAT         9.9090   15.8440   27.0910 O      12584 WAT       0.2606
  12585 WAT         9.9090   15.8440   27.3410 O      12585 WAT       0.2705
  12586 WAT         9.9090   15.8440   27.5910 O      12586 WAT       0.1746
  12587 WAT         9.9090   15.8440   27.8410 O      12587 WAT       0.0692
  12588 WAT         9.9090   16.0940    7.3410 O      12588 WAT       0.0501
  12589 WAT         9.9090   16.0940    7.5910 O      12589 WAT       0.0520
  12590 WAT         9.9090   16.0940   19.0910 O      12590 WAT       0.0465
  12591 WAT         9.9090   16.0940   19.3410 O      12591 WAT       0.0484
  12592 WAT         9.9090   16.0940   26.5910 O      12592 WAT       0.0934
  12593 WAT         9.9090   16.0940   26.8410 O      12593 WAT       0.2517
  12594 WAT         9.9090   16.0940   27.0910 O      12594 WAT       0.4221
  12595 WAT         9.9090   16.0940   27.3410 O      12595 WAT       0.4413
  12596 WAT         9.9090   16.0940   27.5910 O      12596 WAT       0.2868
  12597 WAT         9.9090   16.0940   27.8410 O      12597 WAT       0.1152
  12598 WAT         9.9090   16.3440    7.0910 O      12598 WAT       0.0458
  12599 WAT         9.9090   16.3440    7.3410 O      12599 WAT       0.0532
  12600 WAT         9.9090   16.3440    7.5910 O      12600 WAT       0.0527
  12601 WAT         9.9090   16.3440   18.8410 O      12601 WAT       0.0482
  12602 WAT         9.9090   16.3440   19.0910 O      12602 WAT       0.0706
  12603 WAT         9.9090   16.3440   19.3410 O      12603 WAT       0.0736
  12604 WAT         9.9090   16.3440   19.5910 O      12604 WAT       0.0534
  12605 WAT         9.9090   16.3440   26.5910 O      12605 WAT       0.0934
  12606 WAT         9.9090   16.3440   26.8410 O      12606 WAT       0.2541
  12607 WAT         9.9090   16.3440   27.0910 O      12607 WAT       0.4299
  12608 WAT         9.9090   16.3440   27.3410 O      12608 WAT       0.4530
  12609 WAT         9.9090   16.3440   27.5910 O      12609 WAT       0.2964
  12610 WAT         9.9090   16.3440   27.8410 O      12610 WAT       0.1198
  12611 WAT         9.9090   16.5940    7.0910 O      12611 WAT       0.0472
  12612 WAT         9.9090   16.5940    7.3410 O      12612 WAT       0.0528
  12613 WAT         9.9090   16.5940    7.5910 O      12613 WAT       0.0494
  12614 WAT         9.9090   16.5940   18.8410 O      12614 WAT       0.0610
  12615 WAT         9.9090   16.5940   19.0910 O      12615 WAT       0.0885
  12616 WAT         9.9090   16.5940   19.3410 O      12616 WAT       0.0928
  12617 WAT         9.9090   16.5940   19.5910 O      12617 WAT       0.0689
  12618 WAT         9.9090   16.5940   26.5910 O      12618 WAT       0.0578
  12619 WAT         9.9090   16.5940   26.8410 O      12619 WAT       0.1605
  12620 WAT         9.9090   16.5940   27.0910 O      12620 WAT       0.2743
  12621 WAT         9.9090   16.5940   27.3410 O      12621 WAT       0.2914
  12622 WAT         9.9090   16.5940   27.5910 O      12622 WAT       0.1920
  12623 WAT         9.9090   16.5940   27.8410 O      12623 WAT       0.0777
  12624 WAT         9.9090   16.8440    7.0910 O      12624 WAT       0.0457
  12625 WAT         9.9090   16.8440    7.3410 O      12625 WAT       0.0492
  12626 WAT         9.9090   16.8440   18.8410 O      12626 WAT       0.0575
  12627 WAT         9.9090   16.8440   19.0910 O      12627 WAT       0.0840
  12628 WAT         9.9090   16.8440   19.3410 O      12628 WAT       0.0893
  12629 WAT         9.9090   16.8440   19.5910 O      12629 WAT       0.0675
  12630 WAT         9.9090   16.8440   26.8410 O      12630 WAT       0.0626
  12631 WAT         9.9090   16.8440   27.0910 O      12631 WAT       0.1089
  12632 WAT         9.9090   16.8440   27.3410 O      12632 WAT       0.1168
  12633 WAT         9.9090   16.8440   27.5910 O      12633 WAT       0.0771
  12634 WAT         9.9090   17.0940   19.0910 O      12634 WAT       0.0570
  12635 WAT         9.9090   17.0940   19.3410 O      12635 WAT       0.0618
  12636 WAT         9.9090   17.0940   19.5910 O      12636 WAT       0.0475
  12637 WAT         9.9090   18.0940    7.3410 O      12637 WAT       0.0478
  12638 WAT         9.9090   18.0940    7.5910 O      12638 WAT       0.0455
  12639 WAT         9.9090   18.3440    7.0910 O      12639 WAT       0.0600
  12640 WAT         9.9090   18.3440    7.3410 O      12640 WAT       0.0750
  12641 WAT         9.9090   18.3440    7.5910 O      12641 WAT       0.0766
  12642 WAT         9.9090   18.3440    7.8410 O      12642 WAT       0.0603
  12643 WAT         9.9090   18.5940    6.8410 O      12643 WAT       0.0562
  12644 WAT         9.9090   18.5940    7.0910 O      12644 WAT       0.0813
  12645 WAT         9.9090   18.5940    7.3410 O      12645 WAT       0.1048
  12646 WAT         9.9090   18.5940    7.5910 O      12646 WAT       0.1125
  12647 WAT         9.9090   18.5940    7.8410 O      12647 WAT       0.0947
  12648 WAT         9.9090   18.5940    8.0910 O      12648 WAT       0.0598
  12649 WAT         9.9090   18.8440    6.8410 O      12649 WAT       0.0633
  12650 WAT         9.9090   18.8440    7.0910 O      12650 WAT       0.0914
  12651 WAT         9.9090   18.8440    7.3410 O      12651 WAT       0.1201
  12652 WAT         9.9090   18.8440    7.5910 O      12652 WAT       0.1340
  12653 WAT         9.9090   18.8440    7.8410 O      12653 WAT       0.1196
  12654 WAT         9.9090   18.8440    8.0910 O      12654 WAT       0.0810
  12655 WAT         9.9090   19.0940    6.8410 O      12655 WAT       0.0589
  12656 WAT         9.9090   19.0940    7.0910 O      12656 WAT       0.0839
  12657 WAT         9.9090   19.0940    7.3410 O      12657 WAT       0.1112
  12658 WAT         9.9090   19.0940    7.5910 O      12658 WAT       0.1280
  12659 WAT         9.9090   19.0940    7.8410 O      12659 WAT       0.1198
  12660 WAT         9.9090   19.0940    8.0910 O      12660 WAT       0.0856
  12661 WAT         9.9090   19.3440    6.8410 O      12661 WAT       0.0461
  12662 WAT         9.9090   19.3440    7.0910 O      12662 WAT       0.0638
  12663 WAT         9.9090   19.3440    7.3410 O      12663 WAT       0.0844
  12664 WAT         9.9090   19.3440    7.5910 O      12664 WAT       0.0988
  12665 WAT         9.9090   19.3440    7.8410 O      12665 WAT       0.0951
  12666 WAT         9.9090   19.3440    8.0910 O      12666 WAT       0.0705
  12667 WAT         9.9090   19.5940    7.3410 O      12667 WAT       0.0541
  12668 WAT         9.9090   19.5940    7.5910 O      12668 WAT       0.0628
  12669 WAT         9.9090   19.5940    7.8410 O      12669 WAT       0.0606
  12670 WAT         9.9090   19.5940    8.0910 O      12670 WAT       0.0456
  12671 WAT         9.9090   21.0940    5.0910 O      12671 WAT       0.0540
  12672 WAT         9.9090   21.0940    5.3410 O      12672 WAT       0.0615
  12673 WAT         9.9090   21.0940    5.5910 O      12673 WAT       0.0593
  12674 WAT         9.9090   21.0940    5.8410 O      12674 WAT       0.0481
  12675 WAT         9.9090   21.3440    5.0910 O      12675 WAT       0.0612
  12676 WAT         9.9090   21.3440    5.3410 O      12676 WAT       0.0763
  12677 WAT         9.9090   21.3440    5.5910 O      12677 WAT       0.0804
  12678 WAT         9.9090   21.3440    5.8410 O      12678 WAT       0.0712
  12679 WAT         9.9090   21.3440    6.0910 O      12679 WAT       0.0535
  12680 WAT         9.9090   21.5940    5.0910 O      12680 WAT       0.0578
  12681 WAT         9.9090   21.5940    5.3410 O      12681 WAT       0.0784
  12682 WAT         9.9090   21.5940    5.5910 O      12682 WAT       0.0904
  12683 WAT         9.9090   21.5940    5.8410 O      12683 WAT       0.0877
  12684 WAT         9.9090   21.5940    6.0910 O      12684 WAT       0.0720
  12685 WAT         9.9090   21.5940    6.3410 O      12685 WAT       0.0510
  12686 WAT         9.9090   21.8440    5.0910 O      12686 WAT       0.0453
  12687 WAT         9.9090   21.8440    5.3410 O      12687 WAT       0.0667
  12688 WAT         9.9090   21.8440    5.5910 O      12688 WAT       0.0840
  12689 WAT         9.9090   21.8440    5.8410 O      12689 WAT       0.0892
  12690 WAT         9.9090   21.8440    6.0910 O      12690 WAT       0.0800
  12691 WAT         9.9090   21.8440    6.3410 O      12691 WAT       0.0616
  12692 WAT         9.9090   22.0940    5.3410 O      12692 WAT       0.0489
  12693 WAT         9.9090   22.0940    5.5910 O      12693 WAT       0.0672
  12694 WAT         9.9090   22.0940    5.8410 O      12694 WAT       0.0778
  12695 WAT         9.9090   22.0940    6.0910 O      12695 WAT       0.0759
  12696 WAT         9.9090   22.0940    6.3410 O      12696 WAT       0.0628
  12697 WAT         9.9090   22.3440    2.5910 O      12697 WAT       0.0533
  12698 WAT         9.9090   22.3440    2.8410 O      12698 WAT       0.0533
  12699 WAT         9.9090   22.3440    3.0910 O      12699 WAT       0.0481
  12700 WAT         9.9090   22.3440    5.5910 O      12700 WAT       0.0517
  12701 WAT         9.9090   22.3440    5.8410 O      12701 WAT       0.0647
  12702 WAT         9.9090   22.3440    6.0910 O      12702 WAT       0.0672
  12703 WAT         9.9090   22.3440    6.3410 O      12703 WAT       0.0572
  12704 WAT         9.9090   22.5940    2.5910 O      12704 WAT       0.0600
  12705 WAT         9.9090   22.5940    2.8410 O      12705 WAT       0.0628
  12706 WAT         9.9090   22.5940    3.0910 O      12706 WAT       0.0608
  12707 WAT         9.9090   22.5940    3.3410 O      12707 WAT       0.0539
  12708 WAT         9.9090   22.5940    5.5910 O      12708 WAT       0.0458
  12709 WAT         9.9090   22.5940    5.8410 O      12709 WAT       0.0599
  12710 WAT         9.9090   22.5940    6.0910 O      12710 WAT       0.0626
  12711 WAT         9.9090   22.5940    6.3410 O      12711 WAT       0.0513
  12712 WAT         9.9090   22.8440    2.5910 O      12712 WAT       0.0582
  12713 WAT         9.9090   22.8440    2.8410 O      12713 WAT       0.0643
  12714 WAT         9.9090   22.8440    3.0910 O      12714 WAT       0.0669
  12715 WAT         9.9090   22.8440    3.3410 O      12715 WAT       0.0638
  12716 WAT         9.9090   22.8440    3.5910 O      12716 WAT       0.0537
  12717 WAT         9.9090   22.8440    5.5910 O      12717 WAT       0.0511
  12718 WAT         9.9090   22.8440    5.8410 O      12718 WAT       0.0652
  12719 WAT         9.9090   22.8440    6.0910 O      12719 WAT       0.0650
  12720 WAT         9.9090   22.8440    6.3410 O      12720 WAT       0.0492
  12721 WAT         9.9090   23.0940    2.5910 O      12721 WAT       0.0497
  12722 WAT         9.9090   23.0940    2.8410 O      12722 WAT       0.0575
  12723 WAT         9.9090   23.0940    3.0910 O      12723 WAT       0.0633
  12724 WAT         9.9090   23.0940    3.3410 O      12724 WAT       0.0641
  12725 WAT         9.9090   23.0940    3.5910 O      12725 WAT       0.0576
  12726 WAT         9.9090   23.0940    3.8410 O      12726 WAT       0.0469
  12727 WAT         9.9090   23.0940    5.3410 O      12727 WAT       0.0451
  12728 WAT         9.9090   23.0940    5.5910 O      12728 WAT       0.0628
  12729 WAT         9.9090   23.0940    5.8410 O      12729 WAT       0.0748
  12730 WAT         9.9090   23.0940    6.0910 O      12730 WAT       0.0700
  12731 WAT         9.9090   23.0940    6.3410 O      12731 WAT       0.0493
  12732 WAT         9.9090   23.3440    3.0910 O      12732 WAT       0.0511
  12733 WAT         9.9090   23.3440    3.3410 O      12733 WAT       0.0545
  12734 WAT         9.9090   23.3440    3.5910 O      12734 WAT       0.0529
  12735 WAT         9.9090   23.3440    3.8410 O      12735 WAT       0.0490
  12736 WAT         9.9090   23.3440    4.0910 O      12736 WAT       0.0486
  12737 WAT         9.9090   23.3440    4.3410 O      12737 WAT       0.0528
  12738 WAT         9.9090   23.3440    4.5910 O      12738 WAT       0.0567
  12739 WAT         9.9090   23.3440    4.8410 O      12739 WAT       0.0563
  12740 WAT         9.9090   23.3440    5.0910 O      12740 WAT       0.0555
  12741 WAT         9.9090   23.3440    5.3410 O      12741 WAT       0.0615
  12742 WAT         9.9090   23.3440    5.5910 O      12742 WAT       0.0735
  12743 WAT         9.9090   23.3440    5.8410 O      12743 WAT       0.0801
  12744 WAT         9.9090   23.3440    6.0910 O      12744 WAT       0.0706
  12745 WAT         9.9090   23.3440    6.3410 O      12745 WAT       0.0474
  12746 WAT         9.9090   23.5940    3.8410 O      12746 WAT       0.0486
  12747 WAT         9.9090   23.5940    4.0910 O      12747 WAT       0.0612
  12748 WAT         9.9090   23.5940    4.3410 O      12748 WAT       0.0806
  12749 WAT         9.9090   23.5940    4.5910 O      12749 WAT       0.0953
  12750 WAT         9.9090   23.5940    4.8410 O      12750 WAT       0.0950
  12751 WAT         9.9090   23.5940    5.0910 O      12751 WAT       0.0844
  12752 WAT         9.9090   23.5940    5.3410 O      12752 WAT       0.0771
  12753 WAT         9.9090   23.5940    5.5910 O      12753 WAT       0.0773
  12754 WAT         9.9090   23.5940    5.8410 O      12754 WAT       0.0760
  12755 WAT         9.9090   23.5940    6.0910 O      12755 WAT       0.0636
  12756 WAT         9.9090   23.8440    3.8410 O      12756 WAT       0.0481
  12757 WAT         9.9090   23.8440    4.0910 O      12757 WAT       0.0734
  12758 WAT         9.9090   23.8440    4.3410 O      12758 WAT       0.1076
  12759 WAT         9.9090   23.8440    4.5910 O      12759 WAT       0.1319
  12760 WAT         9.9090   23.8440    4.8410 O      12760 WAT       0.1295
  12761 WAT         9.9090   23.8440    5.0910 O      12761 WAT       0.1063
  12762 WAT         9.9090   23.8440    5.3410 O      12762 WAT       0.0835
  12763 WAT         9.9090   23.8440    5.5910 O      12763 WAT       0.0713
  12764 WAT         9.9090   23.8440    5.8410 O      12764 WAT       0.0635
  12765 WAT         9.9090   23.8440    6.0910 O      12765 WAT       0.0514
  12766 WAT         9.9090   24.0940    3.8410 O      12766 WAT       0.0468
  12767 WAT         9.9090   24.0940    4.0910 O      12767 WAT       0.0782
  12768 WAT         9.9090   24.0940    4.3410 O      12768 WAT       0.1177
  12769 WAT         9.9090   24.0940    4.5910 O      12769 WAT       0.1430
  12770 WAT         9.9090   24.0940    4.8410 O      12770 WAT       0.1359
  12771 WAT         9.9090   24.0940    5.0910 O      12771 WAT       0.1047
  12772 WAT         9.9090   24.0940    5.3410 O      12772 WAT       0.0738
  12773 WAT         9.9090   24.0940    5.5910 O      12773 WAT       0.0558
  12774 WAT         9.9090   24.0940    5.8410 O      12774 WAT       0.0466
  12775 WAT         9.9090   24.3440    4.0910 O      12775 WAT       0.0691
  12776 WAT         9.9090   24.3440    4.3410 O      12776 WAT       0.1008
  12777 WAT         9.9090   24.3440    4.5910 O      12777 WAT       0.1175
  12778 WAT         9.9090   24.3440    4.8410 O      12778 WAT       0.1065
  12779 WAT         9.9090   24.3440    5.0910 O      12779 WAT       0.0774
  12780 WAT         9.9090   24.3440    5.3410 O      12780 WAT       0.0504
  12781 WAT         9.9090   24.5940    4.0910 O      12781 WAT       0.0483
  12782 WAT         9.9090   24.5940    4.3410 O      12782 WAT       0.0657
  12783 WAT         9.9090   24.5940    4.5910 O      12783 WAT       0.0717
  12784 WAT         9.9090   24.5940    4.8410 O      12784 WAT       0.0611
  12785 WAT         9.9090   24.8440    7.0910 O      12785 WAT       0.0514
  12786 WAT         9.9090   24.8440    7.3410 O      12786 WAT       0.0508
  12787 WAT         9.9090   25.0940    6.8410 O      12787 WAT       0.0504
  12788 WAT         9.9090   25.0940    7.0910 O      12788 WAT       0.0727
  12789 WAT         9.9090   25.0940    7.3410 O      12789 WAT       0.0768
  12790 WAT         9.9090   25.0940    7.5910 O      12790 WAT       0.0604
  12791 WAT         9.9090   25.3440    6.8410 O      12791 WAT       0.0469
  12792 WAT         9.9090   25.3440    7.0910 O      12792 WAT       0.0715
  12793 WAT         9.9090   25.3440    7.3410 O      12793 WAT       0.0798
  12794 WAT         9.9090   25.3440    7.5910 O      12794 WAT       0.0665
  12795 WAT         9.9090   25.5940    7.0910 O      12795 WAT       0.0469
  12796 WAT         9.9090   25.5940    7.3410 O      12796 WAT       0.0551
  12797 WAT         9.9090   25.5940    7.5910 O      12797 WAT       0.0488
  12798 WAT        10.1590    8.3440   18.3410 O      12798 WAT       0.0677
  12799 WAT        10.1590    8.3440   18.5910 O      12799 WAT       0.0916
  12800 WAT        10.1590    8.3440   18.8410 O      12800 WAT       0.0981
  12801 WAT        10.1590    8.3440   19.0910 O      12801 WAT       0.0800
  12802 WAT        10.1590    8.3440   19.3410 O      12802 WAT       0.0483
  12803 WAT        10.1590    8.5940   18.3410 O      12803 WAT       0.0538
  12804 WAT        10.1590    8.5940   18.5910 O      12804 WAT       0.0666
  12805 WAT        10.1590    8.5940   18.8410 O      12805 WAT       0.0651
  12806 WAT        10.1590    8.5940   19.0910 O      12806 WAT       0.0486
  12807 WAT        10.1590   11.0940   12.3410 O      12807 WAT       0.0453
  12808 WAT        10.1590   11.3440   12.0910 O      12808 WAT       0.0454
  12809 WAT        10.1590   11.3440   12.3410 O      12809 WAT       0.0460
  12810 WAT        10.1590   11.3440   16.5910 O      12810 WAT       0.0525
  12811 WAT        10.1590   11.3440   16.8410 O      12811 WAT       0.0540
  12812 WAT        10.1590   11.3440   17.0910 O      12812 WAT       0.0455
  12813 WAT        10.1590   11.5940   16.5910 O      12813 WAT       0.0573
  12814 WAT        10.1590   11.5940   16.8410 O      12814 WAT       0.0621
  12815 WAT        10.1590   11.5940   17.0910 O      12815 WAT       0.0560
  12816 WAT        10.1590   11.8440   16.5910 O      12816 WAT       0.0553
  12817 WAT        10.1590   11.8440   16.8410 O      12817 WAT       0.0639
  12818 WAT        10.1590   11.8440   17.0910 O      12818 WAT       0.0639
  12819 WAT        10.1590   11.8440   17.3410 O      12819 WAT       0.0582
  12820 WAT        10.1590   11.8440   17.5910 O      12820 WAT       0.0522
  12821 WAT        10.1590   11.8440   17.8410 O      12821 WAT       0.0476
  12822 WAT        10.1590   12.0940   16.5910 O      12822 WAT       0.0466
  12823 WAT        10.1590   12.0940   16.8410 O      12823 WAT       0.0579
  12824 WAT        10.1590   12.0940   17.0910 O      12824 WAT       0.0656
  12825 WAT        10.1590   12.0940   17.3410 O      12825 WAT       0.0702
  12826 WAT        10.1590   12.0940   17.5910 O      12826 WAT       0.0730
  12827 WAT        10.1590   12.0940   17.8410 O      12827 WAT       0.0725
  12828 WAT        10.1590   12.0940   18.0910 O      12828 WAT       0.0667
  12829 WAT        10.1590   12.0940   18.3410 O      12829 WAT       0.0548
  12830 WAT        10.1590   12.3440   16.8410 O      12830 WAT       0.0459
  12831 WAT        10.1590   12.3440   17.0910 O      12831 WAT       0.0593
  12832 WAT        10.1590   12.3440   17.3410 O      12832 WAT       0.0737
  12833 WAT        10.1590   12.3440   17.5910 O      12833 WAT       0.0864
  12834 WAT        10.1590   12.3440   17.8410 O      12834 WAT       0.0923
  12835 WAT        10.1590   12.3440   18.0910 O      12835 WAT       0.0884
  12836 WAT        10.1590   12.3440   18.3410 O      12836 WAT       0.0745
  12837 WAT        10.1590   12.3440   18.5910 O      12837 WAT       0.0521
  12838 WAT        10.1590   12.5940   17.0910 O      12838 WAT       0.0458
  12839 WAT        10.1590   12.5940   17.3410 O      12839 WAT       0.0639
  12840 WAT        10.1590   12.5940   17.5910 O      12840 WAT       0.0823
  12841 WAT        10.1590   12.5940   17.8410 O      12841 WAT       0.0941
  12842 WAT        10.1590   12.5940   18.0910 O      12842 WAT       0.0949
  12843 WAT        10.1590   12.5940   18.3410 O      12843 WAT       0.0827
  12844 WAT        10.1590   12.5940   18.5910 O      12844 WAT       0.0587
  12845 WAT        10.1590   12.8440   17.5910 O      12845 WAT       0.0616
  12846 WAT        10.1590   12.8440   17.8410 O      12846 WAT       0.0750
  12847 WAT        10.1590   12.8440   18.0910 O      12847 WAT       0.0796
  12848 WAT        10.1590   12.8440   18.3410 O      12848 WAT       0.0715
  12849 WAT        10.1590   12.8440   18.5910 O      12849 WAT       0.0513
  12850 WAT        10.1590   13.0940   10.8410 O      12850 WAT       0.0476
  12851 WAT        10.1590   13.0940   11.0910 O      12851 WAT       0.0492
  12852 WAT        10.1590   13.0940   11.3410 O      12852 WAT       0.0484
  12853 WAT        10.1590   13.0940   11.5910 O      12853 WAT       0.0453
  12854 WAT        10.1590   13.0940   17.8410 O      12854 WAT       0.0473
  12855 WAT        10.1590   13.0940   18.0910 O      12855 WAT       0.0519
  12856 WAT        10.1590   13.0940   18.3410 O      12856 WAT       0.0477
  12857 WAT        10.1590   13.3440   10.3410 O      12857 WAT       0.0478
  12858 WAT        10.1590   13.3440   10.5910 O      12858 WAT       0.0532
  12859 WAT        10.1590   13.3440   10.8410 O      12859 WAT       0.0563
  12860 WAT        10.1590   13.3440   11.0910 O      12860 WAT       0.0560
  12861 WAT        10.1590   13.3440   11.3410 O      12861 WAT       0.0525
  12862 WAT        10.1590   13.3440   11.5910 O      12862 WAT       0.0473
  12863 WAT        10.1590   13.5940   10.0910 O      12863 WAT       0.0490
  12864 WAT        10.1590   13.5940   10.3410 O      12864 WAT       0.0559
  12865 WAT        10.1590   13.5940   10.5910 O      12865 WAT       0.0608
  12866 WAT        10.1590   13.5940   10.8410 O      12866 WAT       0.0624
  12867 WAT        10.1590   13.5940   11.0910 O      12867 WAT       0.0600
  12868 WAT        10.1590   13.5940   11.3410 O      12868 WAT       0.0545
  12869 WAT        10.1590   13.5940   11.5910 O      12869 WAT       0.0483
  12870 WAT        10.1590   13.5940   12.3410 O      12870 WAT       0.0459
  12871 WAT        10.1590   13.5940   12.5910 O      12871 WAT       0.0481
  12872 WAT        10.1590   13.5940   12.8410 O      12872 WAT       0.0477
  12873 WAT        10.1590   13.5940   15.5910 O      12873 WAT       0.0506
  12874 WAT        10.1590   13.5940   15.8410 O      12874 WAT       0.0555
  12875 WAT        10.1590   13.5940   16.0910 O      12875 WAT       0.0514
  12876 WAT        10.1590   13.8440    9.8410 O      12876 WAT       0.0480
  12877 WAT        10.1590   13.8440   10.0910 O      12877 WAT       0.0544
  12878 WAT        10.1590   13.8440   10.3410 O      12878 WAT       0.0600
  12879 WAT        10.1590   13.8440   10.5910 O      12879 WAT       0.0628
  12880 WAT        10.1590   13.8440   10.8410 O      12880 WAT       0.0623
  12881 WAT        10.1590   13.8440   11.0910 O      12881 WAT       0.0586
  12882 WAT        10.1590   13.8440   11.3410 O      12882 WAT       0.0528
  12883 WAT        10.1590   13.8440   11.5910 O      12883 WAT       0.0475
  12884 WAT        10.1590   13.8440   11.8410 O      12884 WAT       0.0451
  12885 WAT        10.1590   13.8440   12.0910 O      12885 WAT       0.0464
  12886 WAT        10.1590   13.8440   12.3410 O      12886 WAT       0.0502
  12887 WAT        10.1590   13.8440   12.5910 O      12887 WAT       0.0537
  12888 WAT        10.1590   13.8440   12.8410 O      12888 WAT       0.0541
  12889 WAT        10.1590   13.8440   13.0910 O      12889 WAT       0.0501
  12890 WAT        10.1590   13.8440   15.3410 O      12890 WAT       0.0532
  12891 WAT        10.1590   13.8440   15.5910 O      12891 WAT       0.0684
  12892 WAT        10.1590   13.8440   15.8410 O      12892 WAT       0.0740
  12893 WAT        10.1590   13.8440   16.0910 O      12893 WAT       0.0672
  12894 WAT        10.1590   13.8440   16.3410 O      12894 WAT       0.0523
  12895 WAT        10.1590   14.0940    9.5910 O      12895 WAT       0.0455
  12896 WAT        10.1590   14.0940    9.8410 O      12896 WAT       0.0495
  12897 WAT        10.1590   14.0940   10.0910 O      12897 WAT       0.0538
  12898 WAT        10.1590   14.0940   10.3410 O      12898 WAT       0.0564
  12899 WAT        10.1590   14.0940   10.5910 O      12899 WAT       0.0564
  12900 WAT        10.1590   14.0940   10.8410 O      12900 WAT       0.0541
  12901 WAT        10.1590   14.0940   11.0910 O      12901 WAT       0.0500
  12902 WAT        10.1590   14.0940   11.3410 O      12902 WAT       0.0454
  12903 WAT        10.1590   14.0940   12.0910 O      12903 WAT       0.0467
  12904 WAT        10.1590   14.0940   12.3410 O      12904 WAT       0.0530
  12905 WAT        10.1590   14.0940   12.5910 O      12905 WAT       0.0592
  12906 WAT        10.1590   14.0940   12.8410 O      12906 WAT       0.0620
  12907 WAT        10.1590   14.0940   13.0910 O      12907 WAT       0.0593
  12908 WAT        10.1590   14.0940   13.3410 O      12908 WAT       0.0508
  12909 WAT        10.1590   14.0940   15.3410 O      12909 WAT       0.0650
  12910 WAT        10.1590   14.0940   15.5910 O      12910 WAT       0.0810
  12911 WAT        10.1590   14.0940   15.8410 O      12911 WAT       0.0852
  12912 WAT        10.1590   14.0940   16.0910 O      12912 WAT       0.0754
  12913 WAT        10.1590   14.0940   16.3410 O      12913 WAT       0.0575
  12914 WAT        10.1590   14.3440   10.0910 O      12914 WAT       0.0450
  12915 WAT        10.1590   14.3440   12.3410 O      12915 WAT       0.0523
  12916 WAT        10.1590   14.3440   12.5910 O      12916 WAT       0.0632
  12917 WAT        10.1590   14.3440   12.8410 O      12917 WAT       0.0713
  12918 WAT        10.1590   14.3440   13.0910 O      12918 WAT       0.0729
  12919 WAT        10.1590   14.3440   13.3410 O      12919 WAT       0.0657
  12920 WAT        10.1590   14.3440   13.5910 O      12920 WAT       0.0514
  12921 WAT        10.1590   14.3440   15.0910 O      12921 WAT       0.0510
  12922 WAT        10.1590   14.3440   15.3410 O      12922 WAT       0.0703
  12923 WAT        10.1590   14.3440   15.5910 O      12923 WAT       0.0845
  12924 WAT        10.1590   14.3440   15.8410 O      12924 WAT       0.0861
  12925 WAT        10.1590   14.3440   16.0910 O      12925 WAT       0.0743
  12926 WAT        10.1590   14.3440   16.3410 O      12926 WAT       0.0553
  12927 WAT        10.1590   14.5940   12.3410 O      12927 WAT       0.0463
  12928 WAT        10.1590   14.5940   12.5910 O      12928 WAT       0.0626
  12929 WAT        10.1590   14.5940   12.8410 O      12929 WAT       0.0781
  12930 WAT        10.1590   14.5940   13.0910 O      12930 WAT       0.0869
  12931 WAT        10.1590   14.5940   13.3410 O      12931 WAT       0.0838
  12932 WAT        10.1590   14.5940   13.5910 O      12932 WAT       0.0689
  12933 WAT        10.1590   14.5940   13.8410 O      12933 WAT       0.0493
  12934 WAT        10.1590   14.5940   15.0910 O      12934 WAT       0.0536
  12935 WAT        10.1590   14.5940   15.3410 O      12935 WAT       0.0695
  12936 WAT        10.1590   14.5940   15.5910 O      12936 WAT       0.0801
  12937 WAT        10.1590   14.5940   15.8410 O      12937 WAT       0.0789
  12938 WAT        10.1590   14.5940   16.0910 O      12938 WAT       0.0658
  12939 WAT        10.1590   14.5940   16.3410 O      12939 WAT       0.0472
  12940 WAT        10.1590   14.8440   12.5910 O      12940 WAT       0.0535
  12941 WAT        10.1590   14.8440   12.8410 O      12941 WAT       0.0746
  12942 WAT        10.1590   14.8440   13.0910 O      12942 WAT       0.0909
  12943 WAT        10.1590   14.8440   13.3410 O      12943 WAT       0.0939
  12944 WAT        10.1590   14.8440   13.5910 O      12944 WAT       0.0814
  12945 WAT        10.1590   14.8440   13.8410 O      12945 WAT       0.0611
  12946 WAT        10.1590   14.8440   15.0910 O      12946 WAT       0.0551
  12947 WAT        10.1590   14.8440   15.3410 O      12947 WAT       0.0658
  12948 WAT        10.1590   14.8440   15.5910 O      12948 WAT       0.0713
  12949 WAT        10.1590   14.8440   15.8410 O      12949 WAT       0.0666
  12950 WAT        10.1590   14.8440   16.0910 O      12950 WAT       0.0526
  12951 WAT        10.1590   15.0940   12.8410 O      12951 WAT       0.0580
  12952 WAT        10.1590   15.0940   13.0910 O      12952 WAT       0.0769
  12953 WAT        10.1590   15.0940   13.3410 O      12953 WAT       0.0847
  12954 WAT        10.1590   15.0940   13.5910 O      12954 WAT       0.0776
  12955 WAT        10.1590   15.0940   13.8410 O      12955 WAT       0.0619
  12956 WAT        10.1590   15.0940   14.0910 O      12956 WAT       0.0485
  12957 WAT        10.1590   15.0940   14.5910 O      12957 WAT       0.0453
  12958 WAT        10.1590   15.0940   14.8410 O      12958 WAT       0.0506
  12959 WAT        10.1590   15.0940   15.0910 O      12959 WAT       0.0571
  12960 WAT        10.1590   15.0940   15.3410 O      12960 WAT       0.0620
  12961 WAT        10.1590   15.0940   15.5910 O      12961 WAT       0.0613
  12962 WAT        10.1590   15.0940   15.8410 O      12962 WAT       0.0523
  12963 WAT        10.1590   15.3440   13.0910 O      12963 WAT       0.0497
  12964 WAT        10.1590   15.3440   13.3410 O      12964 WAT       0.0581
  12965 WAT        10.1590   15.3440   13.5910 O      12965 WAT       0.0564
  12966 WAT        10.1590   15.3440   13.8410 O      12966 WAT       0.0483
  12967 WAT        10.1590   15.3440   14.5910 O      12967 WAT       0.0472
  12968 WAT        10.1590   15.3440   14.8410 O      12968 WAT       0.0536
  12969 WAT        10.1590   15.3440   15.0910 O      12969 WAT       0.0578
  12970 WAT        10.1590   15.3440   15.3410 O      12970 WAT       0.0575
  12971 WAT        10.1590   15.3440   15.5910 O      12971 WAT       0.0508
  12972 WAT        10.1590   15.5940   14.8410 O      12972 WAT       0.0484
  12973 WAT        10.1590   15.5940   15.0910 O      12973 WAT       0.0523
  12974 WAT        10.1590   15.5940   15.3410 O      12974 WAT       0.0491
  12975 WAT        10.1590   15.5940   27.3410 O      12975 WAT       0.0466
  12976 WAT        10.1590   15.8440   19.0910 O      12976 WAT       0.0498
  12977 WAT        10.1590   15.8440   19.3410 O      12977 WAT       0.0581
  12978 WAT        10.1590   15.8440   19.5910 O      12978 WAT       0.0453
  12979 WAT        10.1590   15.8440   26.8410 O      12979 WAT       0.0659
  12980 WAT        10.1590   15.8440   27.0910 O      12980 WAT       0.1146
  12981 WAT        10.1590   15.8440   27.3410 O      12981 WAT       0.1230
  12982 WAT        10.1590   15.8440   27.5910 O      12982 WAT       0.0814
  12983 WAT        10.1590   16.0940    7.3410 O      12983 WAT       0.0491
  12984 WAT        10.1590   16.0940    7.5910 O      12984 WAT       0.0462
  12985 WAT        10.1590   16.0940   18.8410 O      12985 WAT       0.0484
  12986 WAT        10.1590   16.0940   19.0910 O      12986 WAT       0.0840
  12987 WAT        10.1590   16.0940   19.3410 O      12987 WAT       0.1001
  12988 WAT        10.1590   16.0940   19.5910 O      12988 WAT       0.0812
  12989 WAT        10.1590   16.0940   26.8410 O      12989 WAT       0.1064
  12990 WAT        10.1590   16.0940   27.0910 O      12990 WAT       0.1852
  12991 WAT        10.1590   16.0940   27.3410 O      12991 WAT       0.1998
  12992 WAT        10.1590   16.0940   27.5910 O      12992 WAT       0.1334
  12993 WAT        10.1590   16.0940   27.8410 O      12993 WAT       0.0543
  12994 WAT        10.1590   16.3440    7.0910 O      12994 WAT       0.0489
  12995 WAT        10.1590   16.3440    7.3410 O      12995 WAT       0.0526
  12996 WAT        10.1590   16.3440    7.5910 O      12996 WAT       0.0474
  12997 WAT        10.1590   16.3440   18.8410 O      12997 WAT       0.0773
  12998 WAT        10.1590   16.3440   19.0910 O      12998 WAT       0.1333
  12999 WAT        10.1590   16.3440   19.3410 O      12999 WAT       0.1607
  13000 WAT        10.1590   16.3440   19.5910 O      13000 WAT       0.1342
  13001 WAT        10.1590   16.3440   19.8410 O      13001 WAT       0.0767
  13002 WAT        10.1590   16.3440   26.8410 O      13002 WAT       0.1064
  13003 WAT        10.1590   16.3440   27.0910 O      13003 WAT       0.1867
  13004 WAT        10.1590   16.3440   27.3410 O      13004 WAT       0.2028
  13005 WAT        10.1590   16.3440   27.5910 O      13005 WAT       0.1362
  13006 WAT        10.1590   16.3440   27.8410 O      13006 WAT       0.0557
  13007 WAT        10.1590   16.5940    7.0910 O      13007 WAT       0.0508
  13008 WAT        10.1590   16.5940    7.3410 O      13008 WAT       0.0531
  13009 WAT        10.1590   16.5940    7.5910 O      13009 WAT       0.0457
  13010 WAT        10.1590   16.5940   18.8410 O      13010 WAT       0.1009
  13011 WAT        10.1590   16.5940   19.0910 O      13011 WAT       0.1740
  13012 WAT        10.1590   16.5940   19.3410 O      13012 WAT       0.2122
  13013 WAT        10.1590   16.5940   19.5910 O      13013 WAT       0.1806
  13014 WAT        10.1590   16.5940   19.8410 O      13014 WAT       0.1064
  13015 WAT        10.1590   16.5940   26.8410 O      13015 WAT       0.0658
  13016 WAT        10.1590   16.5940   27.0910 O      13016 WAT       0.1171
  13017 WAT        10.1590   16.5940   27.3410 O      13017 WAT       0.1282
  13018 WAT        10.1590   16.5940   27.5910 O      13018 WAT       0.0864
  13019 WAT        10.1590   16.8440    7.0910 O      13019 WAT       0.0492
  13020 WAT        10.1590   16.8440    7.3410 O      13020 WAT       0.0503
  13021 WAT        10.1590   16.8440   18.8410 O      13021 WAT       0.0987
  13022 WAT        10.1590   16.8440   19.0910 O      13022 WAT       0.1720
  13023 WAT        10.1590   16.8440   19.3410 O      13023 WAT       0.2127
  13024 WAT        10.1590   16.8440   19.5910 O      13024 WAT       0.1843
  13025 WAT        10.1590   16.8440   19.8410 O      13025 WAT       0.1109
  13026 WAT        10.1590   16.8440   20.0910 O      13026 WAT       0.0455
  13027 WAT        10.1590   16.8440   27.3410 O      13027 WAT       0.0496
  13028 WAT        10.1590   17.0940   18.8410 O      13028 WAT       0.0685
  13029 WAT        10.1590   17.0940   19.0910 O      13029 WAT       0.1218
  13030 WAT        10.1590   17.0940   19.3410 O      13030 WAT       0.1533
  13031 WAT        10.1590   17.0940   19.5910 O      13031 WAT       0.1352
  13032 WAT        10.1590   17.0940   19.8410 O      13032 WAT       0.0829
  13033 WAT        10.1590   17.3440   19.0910 O      13033 WAT       0.0591
  13034 WAT        10.1590   17.3440   19.3410 O      13034 WAT       0.0761
  13035 WAT        10.1590   17.3440   19.5910 O      13035 WAT       0.0685
  13036 WAT        10.1590   18.0940    7.0910 O      13036 WAT       0.0574
  13037 WAT        10.1590   18.0940    7.3410 O      13037 WAT       0.0666
  13038 WAT        10.1590   18.0940    7.5910 O      13038 WAT       0.0626
  13039 WAT        10.1590   18.3440    6.8410 O      13039 WAT       0.0597
  13040 WAT        10.1590   18.3440    7.0910 O      13040 WAT       0.0817
  13041 WAT        10.1590   18.3440    7.3410 O      13041 WAT       0.0990
  13042 WAT        10.1590   18.3440    7.5910 O      13042 WAT       0.0988
  13043 WAT        10.1590   18.3440    7.8410 O      13043 WAT       0.0764
  13044 WAT        10.1590   18.5940    6.5910 O      13044 WAT       0.0498
  13045 WAT        10.1590   18.5940    6.8410 O      13045 WAT       0.0712
  13046 WAT        10.1590   18.5940    7.0910 O      13046 WAT       0.0986
  13047 WAT        10.1590   18.5940    7.3410 O      13047 WAT       0.1230
  13048 WAT        10.1590   18.5940    7.5910 O      13048 WAT       0.1289
  13049 WAT        10.1590   18.5940    7.8410 O      13049 WAT       0.1063
  13050 WAT        10.1590   18.5940    8.0910 O      13050 WAT       0.0661
  13051 WAT        10.1590   18.8440    6.5910 O      13051 WAT       0.0489
  13052 WAT        10.1590   18.8440    6.8410 O      13052 WAT       0.0683
  13053 WAT        10.1590   18.8440    7.0910 O      13053 WAT       0.0946
  13054 WAT        10.1590   18.8440    7.3410 O      13054 WAT       0.1207
  13055 WAT        10.1590   18.8440    7.5910 O      13055 WAT       0.1321
  13056 WAT        10.1590   18.8440    7.8410 O      13056 WAT       0.1161
  13057 WAT        10.1590   18.8440    8.0910 O      13057 WAT       0.0777
  13058 WAT        10.1590   19.0940    6.8410 O      13058 WAT       0.0520
  13059 WAT        10.1590   19.0940    7.0910 O      13059 WAT       0.0713
  13060 WAT        10.1590   19.0940    7.3410 O      13060 WAT       0.0928
  13061 WAT        10.1590   19.0940    7.5910 O      13061 WAT       0.1058
  13062 WAT        10.1590   19.0940    7.8410 O      13062 WAT       0.0983
  13063 WAT        10.1590   19.0940    8.0910 O      13063 WAT       0.0702
  13064 WAT        10.1590   19.3440    7.3410 O      13064 WAT       0.0567
  13065 WAT        10.1590   19.3440    7.5910 O      13065 WAT       0.0667
  13066 WAT        10.1590   19.3440    7.8410 O      13066 WAT       0.0648
  13067 WAT        10.1590   19.3440    8.0910 O      13067 WAT       0.0485
  13068 WAT        10.1590   21.0940    4.8410 O      13068 WAT       0.0466
  13069 WAT        10.1590   21.0940    5.0910 O      13069 WAT       0.0528
  13070 WAT        10.1590   21.0940    5.3410 O      13070 WAT       0.0506
  13071 WAT        10.1590   21.3440    4.8410 O      13071 WAT       0.0452
  13072 WAT        10.1590   21.3440    5.0910 O      13072 WAT       0.0568
  13073 WAT        10.1590   21.3440    5.3410 O      13073 WAT       0.0604
  13074 WAT        10.1590   21.3440    5.5910 O      13074 WAT       0.0537
  13075 WAT        10.1590   21.5940    5.0910 O      13075 WAT       0.0518
  13076 WAT        10.1590   21.5940    5.3410 O      13076 WAT       0.0612
  13077 WAT        10.1590   21.5940    5.5910 O      13077 WAT       0.0605
  13078 WAT        10.1590   21.5940    5.8410 O      13078 WAT       0.0502
  13079 WAT        10.1590   21.8440    5.3410 O      13079 WAT       0.0524
  13080 WAT        10.1590   21.8440    5.5910 O      13080 WAT       0.0578
  13081 WAT        10.1590   21.8440    5.8410 O      13081 WAT       0.0534
  13082 WAT        10.1590   22.0940    5.5910 O      13082 WAT       0.0486
  13083 WAT        10.1590   22.0940    5.8410 O      13083 WAT       0.0498
  13084 WAT        10.1590   22.8440    5.8410 O      13084 WAT       0.0485
  13085 WAT        10.1590   22.8440    6.0910 O      13085 WAT       0.0452
  13086 WAT        10.1590   23.0940    5.5910 O      13086 WAT       0.0512
  13087 WAT        10.1590   23.0940    5.8410 O      13087 WAT       0.0563
  13088 WAT        10.1590   23.0940    6.0910 O      13088 WAT       0.0496
  13089 WAT        10.1590   23.3440    4.3410 O      13089 WAT       0.0477
  13090 WAT        10.1590   23.3440    4.5910 O      13090 WAT       0.0593
  13091 WAT        10.1590   23.3440    4.8410 O      13091 WAT       0.0642
  13092 WAT        10.1590   23.3440    5.0910 O      13092 WAT       0.0628
  13093 WAT        10.1590   23.3440    5.3410 O      13093 WAT       0.0615
  13094 WAT        10.1590   23.3440    5.5910 O      13094 WAT       0.0636
  13095 WAT        10.1590   23.3440    5.8410 O      13095 WAT       0.0629
  13096 WAT        10.1590   23.3440    6.0910 O      13096 WAT       0.0519
  13097 WAT        10.1590   23.5940    4.3410 O      13097 WAT       0.0693
  13098 WAT        10.1590   23.5940    4.5910 O      13098 WAT       0.0939
  13099 WAT        10.1590   23.5940    4.8410 O      13099 WAT       0.1034
  13100 WAT        10.1590   23.5940    5.0910 O      13100 WAT       0.0956
  13101 WAT        10.1590   23.5940    5.3410 O      13101 WAT       0.0823
  13102 WAT        10.1590   23.5940    5.5910 O      13102 WAT       0.0730
  13103 WAT        10.1590   23.5940    5.8410 O      13103 WAT       0.0647
  13104 WAT        10.1590   23.5940    6.0910 O      13104 WAT       0.0505
  13105 WAT        10.1590   23.8440    4.0910 O      13105 WAT       0.0503
  13106 WAT        10.1590   23.8440    4.3410 O      13106 WAT       0.0878
  13107 WAT        10.1590   23.8440    4.5910 O      13107 WAT       0.1230
  13108 WAT        10.1590   23.8440    4.8410 O      13108 WAT       0.1347
  13109 WAT        10.1590   23.8440    5.0910 O      13109 WAT       0.1189
  13110 WAT        10.1590   23.8440    5.3410 O      13110 WAT       0.0932
  13111 WAT        10.1590   23.8440    5.5910 O      13111 WAT       0.0737
  13112 WAT        10.1590   23.8440    5.8410 O      13112 WAT       0.0603
  13113 WAT        10.1590   23.8440    6.0910 O      13113 WAT       0.0457
  13114 WAT        10.1590   24.0940    4.0910 O      13114 WAT       0.0505
  13115 WAT        10.1590   24.0940    4.3410 O      13115 WAT       0.0901
  13116 WAT        10.1590   24.0940    4.5910 O      13116 WAT       0.1257
  13117 WAT        10.1590   24.0940    4.8410 O      13117 WAT       0.1345
  13118 WAT        10.1590   24.0940    5.0910 O      13118 WAT       0.1140
  13119 WAT        10.1590   24.0940    5.3410 O      13119 WAT       0.0839
  13120 WAT        10.1590   24.0940    5.5910 O      13120 WAT       0.0620
  13121 WAT        10.1590   24.0940    5.8410 O      13121 WAT       0.0490
  13122 WAT        10.1590   24.3440    4.3410 O      13122 WAT       0.0714
  13123 WAT        10.1590   24.3440    4.5910 O      13123 WAT       0.0964
  13124 WAT        10.1590   24.3440    4.8410 O      13124 WAT       0.0994
  13125 WAT        10.1590   24.3440    5.0910 O      13125 WAT       0.0807
  13126 WAT        10.1590   24.3440    5.3410 O      13126 WAT       0.0568
  13127 WAT        10.1590   24.5940    4.5910 O      13127 WAT       0.0542
  13128 WAT        10.1590   24.5940    4.8410 O      13128 WAT       0.0530
  13129 WAT        10.4090    8.3440   18.3410 O      13129 WAT       0.0590
  13130 WAT        10.4090    8.3440   18.5910 O      13130 WAT       0.0741
  13131 WAT        10.4090    8.3440   18.8410 O      13131 WAT       0.0733
  13132 WAT        10.4090    8.3440   19.0910 O      13132 WAT       0.0554
  13133 WAT        10.4090    8.5940   18.3410 O      13133 WAT       0.0451
  13134 WAT        10.4090    8.5940   18.5910 O      13134 WAT       0.0524
  13135 WAT        10.4090    8.5940   18.8410 O      13135 WAT       0.0476
  13136 WAT        10.4090   11.0940   11.8410 O      13136 WAT       0.0456
  13137 WAT        10.4090   11.0940   12.0910 O      13137 WAT       0.0461
  13138 WAT        10.4090   11.0940   16.0910 O      13138 WAT       0.0464
  13139 WAT        10.4090   11.0940   16.3410 O      13139 WAT       0.0531
  13140 WAT        10.4090   11.0940   16.5910 O      13140 WAT       0.0525
  13141 WAT        10.4090   11.3440   11.8410 O      13141 WAT       0.0454
  13142 WAT        10.4090   11.3440   12.0910 O      13142 WAT       0.0459
  13143 WAT        10.4090   11.3440   16.0910 O      13143 WAT       0.0513
  13144 WAT        10.4090   11.3440   16.3410 O      13144 WAT       0.0626
  13145 WAT        10.4090   11.3440   16.5910 O      13145 WAT       0.0653
  13146 WAT        10.4090   11.3440   16.8410 O      13146 WAT       0.0548
  13147 WAT        10.4090   11.5940   16.0910 O      13147 WAT       0.0517
  13148 WAT        10.4090   11.5940   16.3410 O      13148 WAT       0.0665
  13149 WAT        10.4090   11.5940   16.5910 O      13149 WAT       0.0733
  13150 WAT        10.4090   11.5940   16.8410 O      13150 WAT       0.0656
  13151 WAT        10.4090   11.5940   17.0910 O      13151 WAT       0.0476
  13152 WAT        10.4090   11.8440   16.0910 O      13152 WAT       0.0476
  13153 WAT        10.4090   11.8440   16.3410 O      13153 WAT       0.0630
  13154 WAT        10.4090   11.8440   16.5910 O      13154 WAT       0.0731
  13155 WAT        10.4090   11.8440   16.8410 O      13155 WAT       0.0703
  13156 WAT        10.4090   11.8440   17.0910 O      13156 WAT       0.0569
  13157 WAT        10.4090   12.0940   16.3410 O      13157 WAT       0.0530
  13158 WAT        10.4090   12.0940   16.5910 O      13158 WAT       0.0638
  13159 WAT        10.4090   12.0940   16.8410 O      13159 WAT       0.0666
  13160 WAT        10.4090   12.0940   17.0910 O      13160 WAT       0.0614
  13161 WAT        10.4090   12.0940   17.3410 O      13161 WAT       0.0531
  13162 WAT        10.4090   12.0940   17.5910 O      13162 WAT       0.0452
  13163 WAT        10.4090   12.3440   16.5910 O      13163 WAT       0.0483
  13164 WAT        10.4090   12.3440   16.8410 O      13164 WAT       0.0548
  13165 WAT        10.4090   12.3440   17.0910 O      13165 WAT       0.0581
  13166 WAT        10.4090   12.3440   17.3410 O      13166 WAT       0.0594
  13167 WAT        10.4090   12.3440   17.5910 O      13167 WAT       0.0586
  13168 WAT        10.4090   12.3440   17.8410 O      13168 WAT       0.0544
  13169 WAT        10.4090   12.3440   18.0910 O      13169 WAT       0.0465
  13170 WAT        10.4090   12.5940   17.0910 O      13170 WAT       0.0463
  13171 WAT        10.4090   12.5940   17.3410 O      13171 WAT       0.0542
  13172 WAT        10.4090   12.5940   17.5910 O      13172 WAT       0.0600
  13173 WAT        10.4090   12.5940   17.8410 O      13173 WAT       0.0609
  13174 WAT        10.4090   12.5940   18.0910 O      13174 WAT       0.0557
  13175 WAT        10.4090   12.8440   17.5910 O      13175 WAT       0.0473
  13176 WAT        10.4090   12.8440   17.8410 O      13176 WAT       0.0517
  13177 WAT        10.4090   12.8440   18.0910 O      13177 WAT       0.0502
  13178 WAT        10.4090   13.0940   10.5910 O      13178 WAT       0.0457
  13179 WAT        10.4090   13.0940   10.8410 O      13179 WAT       0.0459
  13180 WAT        10.4090   13.3440   10.0910 O      13180 WAT       0.0467
  13181 WAT        10.4090   13.3440   10.3410 O      13181 WAT       0.0508
  13182 WAT        10.4090   13.3440   10.5910 O      13182 WAT       0.0531
  13183 WAT        10.4090   13.3440   10.8410 O      13183 WAT       0.0528
  13184 WAT        10.4090   13.3440   11.0910 O      13184 WAT       0.0497
  13185 WAT        10.4090   13.3440   15.5910 O      13185 WAT       0.0476
  13186 WAT        10.4090   13.3440   15.8410 O      13186 WAT       0.0543
  13187 WAT        10.4090   13.3440   16.0910 O      13187 WAT       0.0514
  13188 WAT        10.4090   13.5940    9.8410 O      13188 WAT       0.0465
  13189 WAT        10.4090   13.5940   10.0910 O      13189 WAT       0.0519
  13190 WAT        10.4090   13.5940   10.3410 O      13190 WAT       0.0563
  13191 WAT        10.4090   13.5940   10.5910 O      13191 WAT       0.0582
  13192 WAT        10.4090   13.5940   10.8410 O      13192 WAT       0.0570
  13193 WAT        10.4090   13.5940   11.0910 O      13193 WAT       0.0526
  13194 WAT        10.4090   13.5940   11.3410 O      13194 WAT       0.0461
  13195 WAT        10.4090   13.5940   15.3410 O      13195 WAT       0.0534
  13196 WAT        10.4090   13.5940   15.5910 O      13196 WAT       0.0731
  13197 WAT        10.4090   13.5940   15.8410 O      13197 WAT       0.0827
  13198 WAT        10.4090   13.5940   16.0910 O      13198 WAT       0.0767
  13199 WAT        10.4090   13.5940   16.3410 O      13199 WAT       0.0586
  13200 WAT        10.4090   13.8440    9.8410 O      13200 WAT       0.0484
  13201 WAT        10.4090   13.8440   10.0910 O      13201 WAT       0.0531
  13202 WAT        10.4090   13.8440   10.3410 O      13202 WAT       0.0564
  13203 WAT        10.4090   13.8440   10.5910 O      13203 WAT       0.0568
  13204 WAT        10.4090   13.8440   10.8410 O      13204 WAT       0.0546
  13205 WAT        10.4090   13.8440   11.0910 O      13205 WAT       0.0500
  13206 WAT        10.4090   13.8440   12.5910 O      13206 WAT       0.0461
  13207 WAT        10.4090   13.8440   12.8410 O      13207 WAT       0.0464
  13208 WAT        10.4090   13.8440   15.0910 O      13208 WAT       0.0480
  13209 WAT        10.4090   13.8440   15.3410 O      13209 WAT       0.0754
  13210 WAT        10.4090   13.8440   15.5910 O      13210 WAT       0.0994
  13211 WAT        10.4090   13.8440   15.8410 O      13211 WAT       0.1081
  13212 WAT        10.4090   13.8440   16.0910 O      13212 WAT       0.0966
  13213 WAT        10.4090   13.8440   16.3410 O      13213 WAT       0.0715
  13214 WAT        10.4090   13.8440   16.5910 O      13214 WAT       0.0459
  13215 WAT        10.4090   14.0940   10.0910 O      13215 WAT       0.0472
  13216 WAT        10.4090   14.0940   10.3410 O      13216 WAT       0.0482
  13217 WAT        10.4090   14.0940   10.5910 O      13217 WAT       0.0470
  13218 WAT        10.4090   14.0940   12.3410 O      13218 WAT       0.0462
  13219 WAT        10.4090   14.0940   12.5910 O      13219 WAT       0.0532
  13220 WAT        10.4090   14.0940   12.8410 O      13220 WAT       0.0567
  13221 WAT        10.4090   14.0940   13.0910 O      13221 WAT       0.0543
  13222 WAT        10.4090   14.0940   13.3410 O      13222 WAT       0.0459
  13223 WAT        10.4090   14.0940   15.0910 O      13223 WAT       0.0618
  13224 WAT        10.4090   14.0940   15.3410 O      13224 WAT       0.0906
  13225 WAT        10.4090   14.0940   15.5910 O      13225 WAT       0.1123
  13226 WAT        10.4090   14.0940   15.8410 O      13226 WAT       0.1155
  13227 WAT        10.4090   14.0940   16.0910 O      13227 WAT       0.0985
  13228 WAT        10.4090   14.0940   16.3410 O      13228 WAT       0.0705
  13229 WAT        10.4090   14.3440   12.3410 O      13229 WAT       0.0458
  13230 WAT        10.4090   14.3440   12.5910 O      13230 WAT       0.0576
  13231 WAT        10.4090   14.3440   12.8410 O      13231 WAT       0.0668
  13232 WAT        10.4090   14.3440   13.0910 O      13232 WAT       0.0692
  13233 WAT        10.4090   14.3440   13.3410 O      13233 WAT       0.0626
  13234 WAT        10.4090   14.3440   13.5910 O      13234 WAT       0.0490
  13235 WAT        10.4090   14.3440   14.8410 O      13235 WAT       0.0460
  13236 WAT        10.4090   14.3440   15.0910 O      13236 WAT       0.0684
  13237 WAT        10.4090   14.3440   15.3410 O      13237 WAT       0.0917
  13238 WAT        10.4090   14.3440   15.5910 O      13238 WAT       0.1057
  13239 WAT        10.4090   14.3440   15.8410 O      13239 WAT       0.1024
  13240 WAT        10.4090   14.3440   16.0910 O      13240 WAT       0.0831
  13241 WAT        10.4090   14.3440   16.3410 O      13241 WAT       0.0574
  13242 WAT        10.4090   14.5940   12.5910 O      13242 WAT       0.0553
  13243 WAT        10.4090   14.5940   12.8410 O      13243 WAT       0.0711
  13244 WAT        10.4090   14.5940   13.0910 O      13244 WAT       0.0806
  13245 WAT        10.4090   14.5940   13.3410 O      13245 WAT       0.0786
  13246 WAT        10.4090   14.5940   13.5910 O      13246 WAT       0.0657
  13247 WAT        10.4090   14.5940   13.8410 O      13247 WAT       0.0489
  13248 WAT        10.4090   14.5940   14.8410 O      13248 WAT       0.0511
  13249 WAT        10.4090   14.5940   15.0910 O      13249 WAT       0.0667
  13250 WAT        10.4090   14.5940   15.3410 O      13250 WAT       0.0807
  13251 WAT        10.4090   14.5940   15.5910 O      13251 WAT       0.0861
  13252 WAT        10.4090   14.5940   15.8410 O      13252 WAT       0.0785
  13253 WAT        10.4090   14.5940   16.0910 O      13253 WAT       0.0607
  13254 WAT        10.4090   14.8440   12.8410 O      13254 WAT       0.0628
  13255 WAT        10.4090   14.8440   13.0910 O      13255 WAT       0.0781
  13256 WAT        10.4090   14.8440   13.3410 O      13256 WAT       0.0823
  13257 WAT        10.4090   14.8440   13.5910 O      13257 WAT       0.0735
  13258 WAT        10.4090   14.8440   13.8410 O      13258 WAT       0.0585
  13259 WAT        10.4090   14.8440   14.0910 O      13259 WAT       0.0470
  13260 WAT        10.4090   14.8440   14.5910 O      13260 WAT       0.0476
  13261 WAT        10.4090   14.8440   14.8410 O      13261 WAT       0.0542
  13262 WAT        10.4090   14.8440   15.0910 O      13262 WAT       0.0613
  13263 WAT        10.4090   14.8440   15.3410 O      13263 WAT       0.0658
  13264 WAT        10.4090   14.8440   15.5910 O      13264 WAT       0.0642
  13265 WAT        10.4090   14.8440   15.8410 O      13265 WAT       0.0548
  13266 WAT        10.4090   15.0940   13.0910 O      13266 WAT       0.0589
  13267 WAT        10.4090   15.0940   13.3410 O      13267 WAT       0.0669
  13268 WAT        10.4090   15.0940   13.5910 O      13268 WAT       0.0641
  13269 WAT        10.4090   15.0940   13.8410 O      13269 WAT       0.0552
  13270 WAT        10.4090   15.0940   14.0910 O      13270 WAT       0.0488
  13271 WAT        10.4090   15.0940   14.3410 O      13271 WAT       0.0491
  13272 WAT        10.4090   15.0940   14.5910 O      13272 WAT       0.0532
  13273 WAT        10.4090   15.0940   14.8410 O      13273 WAT       0.0564
  13274 WAT        10.4090   15.0940   15.0910 O      13274 WAT       0.0567
  13275 WAT        10.4090   15.0940   15.3410 O      13275 WAT       0.0537
  13276 WAT        10.4090   15.0940   15.5910 O      13276 WAT       0.0469
  13277 WAT        10.4090   15.3440   14.5910 O      13277 WAT       0.0515
  13278 WAT        10.4090   15.3440   14.8410 O      13278 WAT       0.0550
  13279 WAT        10.4090   15.3440   15.0910 O      13279 WAT       0.0524
  13280 WAT        10.4090   15.3440   15.3410 O      13280 WAT       0.0450
  13281 WAT        10.4090   15.5940   14.8410 O      13281 WAT       0.0457
  13282 WAT        10.4090   15.5940   19.3410 O      13282 WAT       0.0473
  13283 WAT        10.4090   15.8440   19.0910 O      13283 WAT       0.0663
  13284 WAT        10.4090   15.8440   19.3410 O      13284 WAT       0.0851
  13285 WAT        10.4090   15.8440   19.5910 O      13285 WAT       0.0730
  13286 WAT        10.4090   16.0940   18.8410 O      13286 WAT       0.0609
  13287 WAT        10.4090   16.0940   19.0910 O      13287 WAT       0.1190
  13288 WAT        10.4090   16.0940   19.3410 O      13288 WAT       0.1580
  13289 WAT        10.4090   16.0940   19.5910 O      13289 WAT       0.1424
  13290 WAT        10.4090   16.0940   19.8410 O      13290 WAT       0.0867
  13291 WAT        10.4090   16.0940   27.0910 O      13291 WAT       0.0508
  13292 WAT        10.4090   16.0940   27.3410 O      13292 WAT       0.0565
  13293 WAT        10.4090   16.3440    7.0910 O      13293 WAT       0.0493
  13294 WAT        10.4090   16.3440    7.3410 O      13294 WAT       0.0481
  13295 WAT        10.4090   16.3440   18.8410 O      13295 WAT       0.1001
  13296 WAT        10.4090   16.3440   19.0910 O      13296 WAT       0.1964
  13297 WAT        10.4090   16.3440   19.3410 O      13297 WAT       0.2654
  13298 WAT        10.4090   16.3440   19.5910 O      13298 WAT       0.2460
  13299 WAT        10.4090   16.3440   19.8410 O      13299 WAT       0.1558
  13300 WAT        10.4090   16.3440   20.0910 O      13300 WAT       0.0668
  13301 WAT        10.4090   16.3440   27.0910 O      13301 WAT       0.0508
  13302 WAT        10.4090   16.3440   27.3410 O      13302 WAT       0.0568
  13303 WAT        10.4090   16.5940    6.8410 O      13303 WAT       0.0468
  13304 WAT        10.4090   16.5940    7.0910 O      13304 WAT       0.0518
  13305 WAT        10.4090   16.5940    7.3410 O      13305 WAT       0.0495
  13306 WAT        10.4090   16.5940   18.5910 O      13306 WAT       0.0476
  13307 WAT        10.4090   16.5940   18.8410 O      13307 WAT       0.1342
  13308 WAT        10.4090   16.5940   19.0910 O      13308 WAT       0.2650
  13309 WAT        10.4090   16.5940   19.3410 O      13309 WAT       0.3629
  13310 WAT        10.4090   16.5940   19.5910 O      13310 WAT       0.3424
  13311 WAT        10.4090   16.5940   19.8410 O      13311 WAT       0.2218
  13312 WAT        10.4090   16.5940   20.0910 O      13312 WAT       0.0984
  13313 WAT        10.4090   16.8440    6.8410 O      13313 WAT       0.0457
  13314 WAT        10.4090   16.8440    7.0910 O      13314 WAT       0.0505
  13315 WAT        10.4090   16.8440    7.3410 O      13315 WAT       0.0478
  13316 WAT        10.4090   16.8440   18.5910 O      13316 WAT       0.0475
  13317 WAT        10.4090   16.8440   18.8410 O      13317 WAT       0.1351
  13318 WAT        10.4090   16.8440   19.0910 O      13318 WAT       0.2701
  13319 WAT        10.4090   16.8440   19.3410 O      13319 WAT       0.3751
  13320 WAT        10.4090   16.8440   19.5910 O      13320 WAT       0.3593
  13321 WAT        10.4090   16.8440   19.8410 O      13321 WAT       0.2369
  13322 WAT        10.4090   16.8440   20.0910 O      13322 WAT       0.1075
  13323 WAT        10.4090   17.0940    7.0910 O      13323 WAT       0.0458
  13324 WAT        10.4090   17.0940   18.8410 O      13324 WAT       0.0967
  13325 WAT        10.4090   17.0940   19.0910 O      13325 WAT       0.1968
  13326 WAT        10.4090   17.0940   19.3410 O      13326 WAT       0.2777
  13327 WAT        10.4090   17.0940   19.5910 O      13327 WAT       0.2705
  13328 WAT        10.4090   17.0940   19.8410 O      13328 WAT       0.1816
  13329 WAT        10.4090   17.0940   20.0910 O      13329 WAT       0.0841
  13330 WAT        10.4090   17.3440   18.8410 O      13330 WAT       0.0470
  13331 WAT        10.4090   17.3440   19.0910 O      13331 WAT       0.0985
  13332 WAT        10.4090   17.3440   19.3410 O      13332 WAT       0.1419
  13333 WAT        10.4090   17.3440   19.5910 O      13333 WAT       0.1408
  13334 WAT        10.4090   17.3440   19.8410 O      13334 WAT       0.0966
  13335 WAT        10.4090   17.3440   20.0910 O      13335 WAT       0.0457
  13336 WAT        10.4090   17.5940   19.3410 O      13336 WAT       0.0481
  13337 WAT        10.4090   17.5940   19.5910 O      13337 WAT       0.0490
  13338 WAT        10.4090   17.8440    7.0910 O      13338 WAT       0.0497
  13339 WAT        10.4090   17.8440    7.3410 O      13339 WAT       0.0527
  13340 WAT        10.4090   18.0940    6.8410 O      13340 WAT       0.0557
  13341 WAT        10.4090   18.0940    7.0910 O      13341 WAT       0.0706
  13342 WAT        10.4090   18.0940    7.3410 O      13342 WAT       0.0784
  13343 WAT        10.4090   18.0940    7.5910 O      13343 WAT       0.0709
  13344 WAT        10.4090   18.0940    7.8410 O      13344 WAT       0.0492
  13345 WAT        10.4090   18.3440    6.5910 O      13345 WAT       0.0536
  13346 WAT        10.4090   18.3440    6.8410 O      13346 WAT       0.0720
  13347 WAT        10.4090   18.3440    7.0910 O      13347 WAT       0.0923
  13348 WAT        10.4090   18.3440    7.3410 O      13348 WAT       0.1060
  13349 WAT        10.4090   18.3440    7.5910 O      13349 WAT       0.1011
  13350 WAT        10.4090   18.3440    7.8410 O      13350 WAT       0.0754
  13351 WAT        10.4090   18.5940    6.5910 O      13351 WAT       0.0575
  13352 WAT        10.4090   18.5940    6.8410 O      13352 WAT       0.0755
  13353 WAT        10.4090   18.5940    7.0910 O      13353 WAT       0.0972
  13354 WAT        10.4090   18.5940    7.3410 O      13354 WAT       0.1148
  13355 WAT        10.4090   18.5940    7.5910 O      13355 WAT       0.1153
  13356 WAT        10.4090   18.5940    7.8410 O      13356 WAT       0.0920
  13357 WAT        10.4090   18.5940    8.0910 O      13357 WAT       0.0556
  13358 WAT        10.4090   18.8440    6.5910 O      13358 WAT       0.0480
  13359 WAT        10.4090   18.8440    6.8410 O      13359 WAT       0.0610
  13360 WAT        10.4090   18.8440    7.0910 O      13360 WAT       0.0787
  13361 WAT        10.4090   18.8440    7.3410 O      13361 WAT       0.0957
  13362 WAT        10.4090   18.8440    7.5910 O      13362 WAT       0.1012
  13363 WAT        10.4090   18.8440    7.8410 O      13363 WAT       0.0866
  13364 WAT        10.4090   18.8440    8.0910 O      13364 WAT       0.0568
  13365 WAT        10.4090   19.0940    7.0910 O      13365 WAT       0.0486
  13366 WAT        10.4090   19.0940    7.3410 O      13366 WAT       0.0610
  13367 WAT        10.4090   19.0940    7.5910 O      13367 WAT       0.0680
  13368 WAT        10.4090   19.0940    7.8410 O      13368 WAT       0.0622
  13369 WAT        10.4090   20.8440    4.8410 O      13369 WAT       0.0461
  13370 WAT        10.4090   21.0940    4.8410 O      13370 WAT       0.0458
  13371 WAT        10.4090   23.3440    4.5910 O      13371 WAT       0.0497
  13372 WAT        10.4090   23.3440    4.8410 O      13372 WAT       0.0608
  13373 WAT        10.4090   23.3440    5.0910 O      13373 WAT       0.0628
  13374 WAT        10.4090   23.3440    5.3410 O      13374 WAT       0.0583
  13375 WAT        10.4090   23.3440    5.5910 O      13375 WAT       0.0520
  13376 WAT        10.4090   23.5940    4.3410 O      13376 WAT       0.0460
  13377 WAT        10.4090   23.5940    4.5910 O      13377 WAT       0.0727
  13378 WAT        10.4090   23.5940    4.8410 O      13378 WAT       0.0912
  13379 WAT        10.4090   23.5940    5.0910 O      13379 WAT       0.0928
  13380 WAT        10.4090   23.5940    5.3410 O      13380 WAT       0.0817
  13381 WAT        10.4090   23.5940    5.5910 O      13381 WAT       0.0671
  13382 WAT        10.4090   23.5940    5.8410 O      13382 WAT       0.0524
  13383 WAT        10.4090   23.8440    4.3410 O      13383 WAT       0.0548
  13384 WAT        10.4090   23.8440    4.5910 O      13384 WAT       0.0894
  13385 WAT        10.4090   23.8440    4.8410 O      13385 WAT       0.1123
  13386 WAT        10.4090   23.8440    5.0910 O      13386 WAT       0.1122
  13387 WAT        10.4090   23.8440    5.3410 O      13387 WAT       0.0951
  13388 WAT        10.4090   23.8440    5.5910 O      13388 WAT       0.0746
  13389 WAT        10.4090   23.8440    5.8410 O      13389 WAT       0.0561
  13390 WAT        10.4090   24.0940    4.3410 O      13390 WAT       0.0528
  13391 WAT        10.4090   24.0940    4.5910 O      13391 WAT       0.0860
  13392 WAT        10.4090   24.0940    4.8410 O      13392 WAT       0.1067
  13393 WAT        10.4090   24.0940    5.0910 O      13393 WAT       0.1043
  13394 WAT        10.4090   24.0940    5.3410 O      13394 WAT       0.0864
  13395 WAT        10.4090   24.0940    5.5910 O      13395 WAT       0.0669
  13396 WAT        10.4090   24.0940    5.8410 O      13396 WAT       0.0507
  13397 WAT        10.4090   24.3440    4.5910 O      13397 WAT       0.0618
  13398 WAT        10.4090   24.3440    4.8410 O      13398 WAT       0.0747
  13399 WAT        10.4090   24.3440    5.0910 O      13399 WAT       0.0711
  13400 WAT        10.4090   24.3440    5.3410 O      13400 WAT       0.0581
  13401 WAT        10.4090   24.3440    5.5910 O      13401 WAT       0.0456
  13402 WAT        10.6590   10.5940   16.0910 O      13402 WAT       0.0480
  13403 WAT        10.6590   10.8440   15.8410 O      13403 WAT       0.0520
  13404 WAT        10.6590   10.8440   16.0910 O      13404 WAT       0.0581
  13405 WAT        10.6590   10.8440   16.3410 O      13405 WAT       0.0548
  13406 WAT        10.6590   11.0940   15.8410 O      13406 WAT       0.0568
  13407 WAT        10.6590   11.0940   16.0910 O      13407 WAT       0.0680
  13408 WAT        10.6590   11.0940   16.3410 O      13408 WAT       0.0685
  13409 WAT        10.6590   11.0940   16.5910 O      13409 WAT       0.0553
  13410 WAT        10.6590   11.3440   15.8410 O      13410 WAT       0.0567
  13411 WAT        10.6590   11.3440   16.0910 O      13411 WAT       0.0733
  13412 WAT        10.6590   11.3440   16.3410 O      13412 WAT       0.0796
  13413 WAT        10.6590   11.3440   16.5910 O      13413 WAT       0.0690
  13414 WAT        10.6590   11.3440   16.8410 O      13414 WAT       0.0467
  13415 WAT        10.6590   11.5940   15.8410 O      13415 WAT       0.0516
  13416 WAT        10.6590   11.5940   16.0910 O      13416 WAT       0.0715
  13417 WAT        10.6590   11.5940   16.3410 O      13417 WAT       0.0838
  13418 WAT        10.6590   11.5940   16.5910 O      13418 WAT       0.0783
  13419 WAT        10.6590   11.5940   16.8410 O      13419 WAT       0.0573
  13420 WAT        10.6590   11.8440   16.0910 O      13420 WAT       0.0638
  13421 WAT        10.6590   11.8440   16.3410 O      13421 WAT       0.0796
  13422 WAT        10.6590   11.8440   16.5910 O      13422 WAT       0.0798
  13423 WAT        10.6590   11.8440   16.8410 O      13423 WAT       0.0634
  13424 WAT        10.6590   12.0940   16.0910 O      13424 WAT       0.0524
  13425 WAT        10.6590   12.0940   16.3410 O      13425 WAT       0.0676
  13426 WAT        10.6590   12.0940   16.5910 O      13426 WAT       0.0719
  13427 WAT        10.6590   12.0940   16.8410 O      13427 WAT       0.0623
  13428 WAT        10.6590   12.0940   17.0910 O      13428 WAT       0.0458
  13429 WAT        10.6590   12.3440   16.3410 O      13429 WAT       0.0508
  13430 WAT        10.6590   12.3440   16.5910 O      13430 WAT       0.0561
  13431 WAT        10.6590   12.3440   16.8410 O      13431 WAT       0.0528
  13432 WAT        10.6590   13.3440    9.8410 O      13432 WAT       0.0454
  13433 WAT        10.6590   13.3440   10.0910 O      13433 WAT       0.0469
  13434 WAT        10.6590   13.3440   10.3410 O      13434 WAT       0.0465
  13435 WAT        10.6590   13.3440   15.5910 O      13435 WAT       0.0532
  13436 WAT        10.6590   13.3440   15.8410 O      13436 WAT       0.0652
  13437 WAT        10.6590   13.3440   16.0910 O      13437 WAT       0.0639
  13438 WAT        10.6590   13.3440   16.3410 O      13438 WAT       0.0503
  13439 WAT        10.6590   13.5940    9.5910 O      13439 WAT       0.0450
  13440 WAT        10.6590   13.5940    9.8410 O      13440 WAT       0.0476
  13441 WAT        10.6590   13.5940   10.0910 O      13441 WAT       0.0494
  13442 WAT        10.6590   13.5940   10.3410 O      13442 WAT       0.0491
  13443 WAT        10.6590   13.5940   10.5910 O      13443 WAT       0.0465
  13444 WAT        10.6590   13.5940   15.3410 O      13444 WAT       0.0591
  13445 WAT        10.6590   13.5940   15.5910 O      13445 WAT       0.0866
  13446 WAT        10.6590   13.5940   15.8410 O      13446 WAT       0.1020
  13447 WAT        10.6590   13.5940   16.0910 O      13447 WAT       0.0959
  13448 WAT        10.6590   13.5940   16.3410 O      13448 WAT       0.0719
  13449 WAT        10.6590   13.8440    9.8410 O      13449 WAT       0.0451
  13450 WAT        10.6590   13.8440   10.0910 O      13450 WAT       0.0466
  13451 WAT        10.6590   13.8440   10.3410 O      13451 WAT       0.0461
  13452 WAT        10.6590   13.8440   15.0910 O      13452 WAT       0.0523
  13453 WAT        10.6590   13.8440   15.3410 O      13453 WAT       0.0869
  13454 WAT        10.6590   13.8440   15.5910 O      13454 WAT       0.1191
  13455 WAT        10.6590   13.8440   15.8410 O      13455 WAT       0.1321
  13456 WAT        10.6590   13.8440   16.0910 O      13456 WAT       0.1177
  13457 WAT        10.6590   13.8440   16.3410 O      13457 WAT       0.0844
  13458 WAT        10.6590   13.8440   16.5910 O      13458 WAT       0.0502
  13459 WAT        10.6590   14.0940   15.0910 O      13459 WAT       0.0697
  13460 WAT        10.6590   14.0940   15.3410 O      13460 WAT       0.1046
  13461 WAT        10.6590   14.0940   15.5910 O      13461 WAT       0.1313
  13462 WAT        10.6590   14.0940   15.8410 O      13462 WAT       0.1349
  13463 WAT        10.6590   14.0940   16.0910 O      13463 WAT       0.1129
  13464 WAT        10.6590   14.0940   16.3410 O      13464 WAT       0.0775
  13465 WAT        10.6590   14.0940   16.5910 O      13465 WAT       0.0453
  13466 WAT        10.6590   14.3440   12.8410 O      13466 WAT       0.0512
  13467 WAT        10.6590   14.3440   13.0910 O      13467 WAT       0.0540
  13468 WAT        10.6590   14.3440   13.3410 O      13468 WAT       0.0493
  13469 WAT        10.6590   14.3440   14.8410 O      13469 WAT       0.0518
  13470 WAT        10.6590   14.3440   15.0910 O      13470 WAT       0.0771
  13471 WAT        10.6590   14.3440   15.3410 O      13471 WAT       0.1024
  13472 WAT        10.6590   14.3440   15.5910 O      13472 WAT       0.1158
  13473 WAT        10.6590   14.3440   15.8410 O      13473 WAT       0.1090
  13474 WAT        10.6590   14.3440   16.0910 O      13474 WAT       0.0851
  13475 WAT        10.6590   14.3440   16.3410 O      13475 WAT       0.0562
  13476 WAT        10.6590   14.5940   12.8410 O      13476 WAT       0.0544
  13477 WAT        10.6590   14.5940   13.0910 O      13477 WAT       0.0629
  13478 WAT        10.6590   14.5940   13.3410 O      13478 WAT       0.0624
  13479 WAT        10.6590   14.5940   13.5910 O      13479 WAT       0.0536
  13480 WAT        10.6590   14.5940   14.8410 O      13480 WAT       0.0577
  13481 WAT        10.6590   14.5940   15.0910 O      13481 WAT       0.0728
  13482 WAT        10.6590   14.5940   15.3410 O      13482 WAT       0.0839
  13483 WAT        10.6590   14.5940   15.5910 O      13483 WAT       0.0843
  13484 WAT        10.6590   14.5940   15.8410 O      13484 WAT       0.0722
  13485 WAT        10.6590   14.5940   16.0910 O      13485 WAT       0.0527
  13486 WAT        10.6590   14.8440   12.8410 O      13486 WAT       0.0455
  13487 WAT        10.6590   14.8440   13.0910 O      13487 WAT       0.0578
  13488 WAT        10.6590   14.8440   13.3410 O      13488 WAT       0.0624
  13489 WAT        10.6590   14.8440   13.5910 O      13489 WAT       0.0582
  13490 WAT        10.6590   14.8440   13.8410 O      13490 WAT       0.0500
  13491 WAT        10.6590   14.8440   14.0910 O      13491 WAT       0.0452
  13492 WAT        10.6590   14.8440   14.3410 O      13492 WAT       0.0471
  13493 WAT        10.6590   14.8440   14.5910 O      13493 WAT       0.0532
  13494 WAT        10.6590   14.8440   14.8410 O      13494 WAT       0.0594
  13495 WAT        10.6590   14.8440   15.0910 O      13495 WAT       0.0628
  13496 WAT        10.6590   14.8440   15.3410 O      13496 WAT       0.0613
  13497 WAT        10.6590   14.8440   15.5910 O      13497 WAT       0.0539
  13498 WAT        10.6590   15.0940   13.3410 O      13498 WAT       0.0468
  13499 WAT        10.6590   15.0940   13.5910 O      13499 WAT       0.0475
  13500 WAT        10.6590   15.0940   14.0910 O      13500 WAT       0.0453
  13501 WAT        10.6590   15.0940   14.3410 O      13501 WAT       0.0509
  13502 WAT        10.6590   15.0940   14.5910 O      13502 WAT       0.0573
  13503 WAT        10.6590   15.0940   14.8410 O      13503 WAT       0.0587
  13504 WAT        10.6590   15.0940   15.0910 O      13504 WAT       0.0536
  13505 WAT        10.6590   15.3440   14.5910 O      13505 WAT       0.0523
  13506 WAT        10.6590   15.3440   14.8410 O      13506 WAT       0.0536
  13507 WAT        10.6590   15.3440   15.0910 O      13507 WAT       0.0461
  13508 WAT        10.6590   15.5940   19.3410 O      13508 WAT       0.0460
  13509 WAT        10.6590   15.8440   19.0910 O      13509 WAT       0.0666
  13510 WAT        10.6590   15.8440   19.3410 O      13510 WAT       0.0929
  13511 WAT        10.6590   15.8440   19.5910 O      13511 WAT       0.0866
  13512 WAT        10.6590   15.8440   19.8410 O      13512 WAT       0.0539
  13513 WAT        10.6590   16.0940   18.8410 O      13513 WAT       0.0591
  13514 WAT        10.6590   16.0940   19.0910 O      13514 WAT       0.1271
  13515 WAT        10.6590   16.0940   19.3410 O      13515 WAT       0.1843
  13516 WAT        10.6590   16.0940   19.5910 O      13516 WAT       0.1805
  13517 WAT        10.6590   16.0940   19.8410 O      13517 WAT       0.1196
  13518 WAT        10.6590   16.0940   20.0910 O      13518 WAT       0.0533
  13519 WAT        10.6590   16.3440    6.8410 O      13519 WAT       0.0458
  13520 WAT        10.6590   16.3440    7.0910 O      13520 WAT       0.0477
  13521 WAT        10.6590   16.3440   18.8410 O      13521 WAT       0.1000
  13522 WAT        10.6590   16.3440   19.0910 O      13522 WAT       0.2170
  13523 WAT        10.6590   16.3440   19.3410 O      13523 WAT       0.3210
  13524 WAT        10.6590   16.3440   19.5910 O      13524 WAT       0.3233
  13525 WAT        10.6590   16.3440   19.8410 O      13525 WAT       0.2217
  13526 WAT        10.6590   16.3440   20.0910 O      13526 WAT       0.1035
  13527 WAT        10.6590   16.5940    6.8410 O      13527 WAT       0.0486
  13528 WAT        10.6590   16.5940    7.0910 O      13528 WAT       0.0504
  13529 WAT        10.6590   16.5940   18.8410 O      13529 WAT       0.1373
  13530 WAT        10.6590   16.5940   19.0910 O      13530 WAT       0.3004
  13531 WAT        10.6590   16.5940   19.3410 O      13531 WAT       0.4505
  13532 WAT        10.6590   16.5940   19.5910 O      13532 WAT       0.4612
  13533 WAT        10.6590   16.5940   19.8410 O      13533 WAT       0.3222
  13534 WAT        10.6590   16.5940   20.0910 O      13534 WAT       0.1542
  13535 WAT        10.6590   16.5940   20.3410 O      13535 WAT       0.0502
  13536 WAT        10.6590   16.8440    6.8410 O      13536 WAT       0.0471
  13537 WAT        10.6590   16.8440    7.0910 O      13537 WAT       0.0490
  13538 WAT        10.6590   16.8440   18.8410 O      13538 WAT       0.1413
  13539 WAT        10.6590   16.8440   19.0910 O      13539 WAT       0.3131
  13540 WAT        10.6590   16.8440   19.3410 O      13540 WAT       0.4753
  13541 WAT        10.6590   16.8440   19.5910 O      13541 WAT       0.4930
  13542 WAT        10.6590   16.8440   19.8410 O      13542 WAT       0.3493
  13543 WAT        10.6590   16.8440   20.0910 O      13543 WAT       0.1700
  13544 WAT        10.6590   16.8440   20.3410 O      13544 WAT       0.0567
  13545 WAT        10.6590   17.0940   18.8410 O      13545 WAT       0.1032
  13546 WAT        10.6590   17.0940   19.0910 O      13546 WAT       0.2325
  13547 WAT        10.6590   17.0940   19.3410 O      13547 WAT       0.3579
  13548 WAT        10.6590   17.0940   19.5910 O      13548 WAT       0.3764
  13549 WAT        10.6590   17.0940   19.8410 O      13549 WAT       0.2708
  13550 WAT        10.6590   17.0940   20.0910 O      13550 WAT       0.1342
  13551 WAT        10.6590   17.0940   20.3410 O      13551 WAT       0.0458
  13552 WAT        10.6590   17.3440   18.8410 O      13552 WAT       0.0511
  13553 WAT        10.6590   17.3440   19.0910 O      13553 WAT       0.1184
  13554 WAT        10.6590   17.3440   19.3410 O      13554 WAT       0.1856
  13555 WAT        10.6590   17.3440   19.5910 O      13555 WAT       0.1986
  13556 WAT        10.6590   17.3440   19.8410 O      13556 WAT       0.1457
  13557 WAT        10.6590   17.3440   20.0910 O      13557 WAT       0.0738
  13558 WAT        10.6590   17.5940   19.3410 O      13558 WAT       0.0642
  13559 WAT        10.6590   17.5940   19.5910 O      13559 WAT       0.0705
  13560 WAT        10.6590   17.5940   19.8410 O      13560 WAT       0.0530
  13561 WAT        10.6590   17.8440    6.8410 O      13561 WAT       0.0457
  13562 WAT        10.6590   17.8440    7.0910 O      13562 WAT       0.0525
  13563 WAT        10.6590   17.8440    7.3410 O      13563 WAT       0.0526
  13564 WAT        10.6590   18.0940    6.5910 O      13564 WAT       0.0499
  13565 WAT        10.6590   18.0940    6.8410 O      13565 WAT       0.0616
  13566 WAT        10.6590   18.0940    7.0910 O      13566 WAT       0.0718
  13567 WAT        10.6590   18.0940    7.3410 O      13567 WAT       0.0742
  13568 WAT        10.6590   18.0940    7.5910 O      13568 WAT       0.0631
  13569 WAT        10.6590   18.3440    6.3410 O      13569 WAT       0.0484
  13570 WAT        10.6590   18.3440    6.5910 O      13570 WAT       0.0602
  13571 WAT        10.6590   18.3440    6.8410 O      13571 WAT       0.0730
  13572 WAT        10.6590   18.3440    7.0910 O      13572 WAT       0.0850
  13573 WAT        10.6590   18.3440    7.3410 O      13573 WAT       0.0899
  13574 WAT        10.6590   18.3440    7.5910 O      13574 WAT       0.0802
  13575 WAT        10.6590   18.3440    7.8410 O      13575 WAT       0.0565
  13576 WAT        10.6590   18.5940    6.3410 O      13576 WAT       0.0489
  13577 WAT        10.6590   18.5940    6.5910 O      13577 WAT       0.0575
  13578 WAT        10.6590   18.5940    6.8410 O      13578 WAT       0.0673
  13579 WAT        10.6590   18.5940    7.0910 O      13579 WAT       0.0780
  13580 WAT        10.6590   18.5940    7.3410 O      13580 WAT       0.0846
  13581 WAT        10.6590   18.5940    7.5910 O      13581 WAT       0.0795
  13582 WAT        10.6590   18.5940    7.8410 O      13582 WAT       0.0602
  13583 WAT        10.6590   18.8440    6.8410 O      13583 WAT       0.0461
  13584 WAT        10.6590   18.8440    7.0910 O      13584 WAT       0.0534
  13585 WAT        10.6590   18.8440    7.3410 O      13585 WAT       0.0599
  13586 WAT        10.6590   18.8440    7.5910 O      13586 WAT       0.0597
  13587 WAT        10.6590   18.8440    7.8410 O      13587 WAT       0.0489
  13588 WAT        10.6590   20.0940    4.5910 O      13588 WAT       0.0474
  13589 WAT        10.6590   20.3440    4.3410 O      13589 WAT       0.0507
  13590 WAT        10.6590   20.3440    4.5910 O      13590 WAT       0.0544
  13591 WAT        10.6590   20.3440    4.8410 O      13591 WAT       0.0473
  13592 WAT        10.6590   20.5940    4.3410 O      13592 WAT       0.0502
  13593 WAT        10.6590   20.5940    4.5910 O      13593 WAT       0.0551
  13594 WAT        10.6590   20.5940    4.8410 O      13594 WAT       0.0487
  13595 WAT        10.6590   20.8440    4.5910 O      13595 WAT       0.0492
  13596 WAT        10.6590   20.8440    4.8410 O      13596 WAT       0.0461
  13597 WAT        10.6590   23.3440    4.8410 O      13597 WAT       0.0503
  13598 WAT        10.6590   23.3440    5.0910 O      13598 WAT       0.0572
  13599 WAT        10.6590   23.3440    5.3410 O      13599 WAT       0.0540
  13600 WAT        10.6590   23.5940    4.5910 O      13600 WAT       0.0468
  13601 WAT        10.6590   23.5940    4.8410 O      13601 WAT       0.0686
  13602 WAT        10.6590   23.5940    5.0910 O      13602 WAT       0.0799
  13603 WAT        10.6590   23.5940    5.3410 O      13603 WAT       0.0763
  13604 WAT        10.6590   23.5940    5.5910 O      13604 WAT       0.0618
  13605 WAT        10.6590   23.8440    4.5910 O      13605 WAT       0.0532
  13606 WAT        10.6590   23.8440    4.8410 O      13606 WAT       0.0792
  13607 WAT        10.6590   23.8440    5.0910 O      13607 WAT       0.0928
  13608 WAT        10.6590   23.8440    5.3410 O      13608 WAT       0.0890
  13609 WAT        10.6590   23.8440    5.5910 O      13609 WAT       0.0729
  13610 WAT        10.6590   23.8440    5.8410 O      13610 WAT       0.0518
  13611 WAT        10.6590   24.0940    4.5910 O      13611 WAT       0.0481
  13612 WAT        10.6590   24.0940    4.8410 O      13612 WAT       0.0715
  13613 WAT        10.6590   24.0940    5.0910 O      13613 WAT       0.0836
  13614 WAT        10.6590   24.0940    5.3410 O      13614 WAT       0.0807
  13615 WAT        10.6590   24.0940    5.5910 O      13615 WAT       0.0675
  13616 WAT        10.6590   24.0940    5.8410 O      13616 WAT       0.0497
  13617 WAT        10.6590   24.3440    4.8410 O      13617 WAT       0.0476
  13618 WAT        10.6590   24.3440    5.0910 O      13618 WAT       0.0553
  13619 WAT        10.6590   24.3440    5.3410 O      13619 WAT       0.0539
  13620 WAT        10.6590   24.3440    5.5910 O      13620 WAT       0.0466
  13621 WAT        10.9090    9.3440   14.5910 O      13621 WAT       0.0455
  13622 WAT        10.9090    9.5940   14.5910 O      13622 WAT       0.0453
  13623 WAT        10.9090   10.3440   15.8410 O      13623 WAT       0.0504
  13624 WAT        10.9090   10.3440   16.0910 O      13624 WAT       0.0501
  13625 WAT        10.9090   10.5940   15.5910 O      13625 WAT       0.0494
  13626 WAT        10.9090   10.5940   15.8410 O      13626 WAT       0.0605
  13627 WAT        10.9090   10.5940   16.0910 O      13627 WAT       0.0621
  13628 WAT        10.9090   10.5940   16.3410 O      13628 WAT       0.0500
  13629 WAT        10.9090   10.8440   15.5910 O      13629 WAT       0.0523
  13630 WAT        10.9090   10.8440   15.8410 O      13630 WAT       0.0693
  13631 WAT        10.9090   10.8440   16.0910 O      13631 WAT       0.0755
  13632 WAT        10.9090   10.8440   16.3410 O      13632 WAT       0.0634
  13633 WAT        10.9090   11.0940   15.5910 O      13633 WAT       0.0509
  13634 WAT        10.9090   11.0940   15.8410 O      13634 WAT       0.0736
  13635 WAT        10.9090   11.0940   16.0910 O      13635 WAT       0.0865
  13636 WAT        10.9090   11.0940   16.3410 O      13636 WAT       0.0778
  13637 WAT        10.9090   11.0940   16.5910 O      13637 WAT       0.0525
  13638 WAT        10.9090   11.3440   15.8410 O      13638 WAT       0.0702
  13639 WAT        10.9090   11.3440   16.0910 O      13639 WAT       0.0899
  13640 WAT        10.9090   11.3440   16.3410 O      13640 WAT       0.0879
  13641 WAT        10.9090   11.3440   16.5910 O      13641 WAT       0.0643
  13642 WAT        10.9090   11.5940   15.8410 O      13642 WAT       0.0603
  13643 WAT        10.9090   11.5940   16.0910 O      13643 WAT       0.0842
  13644 WAT        10.9090   11.5940   16.3410 O      13644 WAT       0.0900
  13645 WAT        10.9090   11.5940   16.5910 O      13645 WAT       0.0720
  13646 WAT        10.9090   11.8440   15.8410 O      13646 WAT       0.0481
  13647 WAT        10.9090   11.8440   16.0910 O      13647 WAT       0.0724
  13648 WAT        10.9090   11.8440   16.3410 O      13648 WAT       0.0842
  13649 WAT        10.9090   11.8440   16.5910 O      13649 WAT       0.0736
  13650 WAT        10.9090   11.8440   16.8410 O      13650 WAT       0.0485
  13651 WAT        10.9090   12.0940   16.0910 O      13651 WAT       0.0575
  13652 WAT        10.9090   12.0940   16.3410 O      13652 WAT       0.0713
  13653 WAT        10.9090   12.0940   16.5910 O      13653 WAT       0.0673
  13654 WAT        10.9090   12.0940   16.8410 O      13654 WAT       0.0486
  13655 WAT        10.9090   12.3440   16.3410 O      13655 WAT       0.0537
  13656 WAT        10.9090   12.3440   16.5910 O      13656 WAT       0.0533
  13657 WAT        10.9090   13.3440    9.5910 O      13657 WAT       0.0457
  13658 WAT        10.9090   13.3440   15.5910 O      13658 WAT       0.0482
  13659 WAT        10.9090   13.3440   15.8410 O      13659 WAT       0.0632
  13660 WAT        10.9090   13.3440   16.0910 O      13660 WAT       0.0644
  13661 WAT        10.9090   13.3440   16.3410 O      13661 WAT       0.0508
  13662 WAT        10.9090   13.5940    9.5910 O      13662 WAT       0.0457
  13663 WAT        10.9090   13.5940   15.3410 O      13663 WAT       0.0523
  13664 WAT        10.9090   13.5940   15.5910 O      13664 WAT       0.0821
  13665 WAT        10.9090   13.5940   15.8410 O      13665 WAT       0.1011
  13666 WAT        10.9090   13.5940   16.0910 O      13666 WAT       0.0968
  13667 WAT        10.9090   13.5940   16.3410 O      13667 WAT       0.0718
  13668 WAT        10.9090   13.8440   15.0910 O      13668 WAT       0.0453
  13669 WAT        10.9090   13.8440   15.3410 O      13669 WAT       0.0799
  13670 WAT        10.9090   13.8440   15.5910 O      13670 WAT       0.1148
  13671 WAT        10.9090   13.8440   15.8410 O      13671 WAT       0.1311
  13672 WAT        10.9090   13.8440   16.0910 O      13672 WAT       0.1175
  13673 WAT        10.9090   13.8440   16.3410 O      13673 WAT       0.0826
  13674 WAT        10.9090   13.8440   16.5910 O      13674 WAT       0.0466
  13675 WAT        10.9090   14.0940   15.0910 O      13675 WAT       0.0629
  13676 WAT        10.9090   14.0940   15.3410 O      13676 WAT       0.0976
  13677 WAT        10.9090   14.0940   15.5910 O      13677 WAT       0.1260
  13678 WAT        10.9090   14.0940   15.8410 O      13678 WAT       0.1314
  13679 WAT        10.9090   14.0940   16.0910 O      13679 WAT       0.1097
  13680 WAT        10.9090   14.0940   16.3410 O      13680 WAT       0.0737
  13681 WAT        10.9090   14.3440   14.8410 O      13681 WAT       0.0475
  13682 WAT        10.9090   14.3440   15.0910 O      13682 WAT       0.0711
  13683 WAT        10.9090   14.3440   15.3410 O      13683 WAT       0.0951
  13684 WAT        10.9090   14.3440   15.5910 O      13684 WAT       0.1079
  13685 WAT        10.9090   14.3440   15.8410 O      13685 WAT       0.1013
  13686 WAT        10.9090   14.3440   16.0910 O      13686 WAT       0.0785
  13687 WAT        10.9090   14.3440   16.3410 O      13687 WAT       0.0515
  13688 WAT        10.9090   14.5940   14.8410 O      13688 WAT       0.0549
  13689 WAT        10.9090   14.5940   15.0910 O      13689 WAT       0.0677
  13690 WAT        10.9090   14.5940   15.3410 O      13690 WAT       0.0758
  13691 WAT        10.9090   14.5940   15.5910 O      13691 WAT       0.0740
  13692 WAT        10.9090   14.5940   15.8410 O      13692 WAT       0.0617
  13693 WAT        10.9090   14.8440   14.5910 O      13693 WAT       0.0521
  13694 WAT        10.9090   14.8440   14.8410 O      13694 WAT       0.0576
  13695 WAT        10.9090   14.8440   15.0910 O      13695 WAT       0.0580
  13696 WAT        10.9090   14.8440   15.3410 O      13696 WAT       0.0529
  13697 WAT        10.9090   14.8440   17.3410 O      13697 WAT       0.0472
  13698 WAT        10.9090   15.0940   14.3410 O      13698 WAT       0.0476
  13699 WAT        10.9090   15.0940   14.5910 O      13699 WAT       0.0560
  13700 WAT        10.9090   15.0940   14.8410 O      13700 WAT       0.0567
  13701 WAT        10.9090   15.0940   15.0910 O      13701 WAT       0.0488
  13702 WAT        10.9090   15.0940   17.0910 O      13702 WAT       0.0451
  13703 WAT        10.9090   15.0940   17.3410 O      13703 WAT       0.0492
  13704 WAT        10.9090   15.3440   14.5910 O      13704 WAT       0.0494
  13705 WAT        10.9090   15.3440   14.8410 O      13705 WAT       0.0504
  13706 WAT        10.9090   15.8440   19.0910 O      13706 WAT       0.0490
  13707 WAT        10.9090   15.8440   19.3410 O      13707 WAT       0.0735
  13708 WAT        10.9090   15.8440   19.5910 O      13708 WAT       0.0736
  13709 WAT        10.9090   15.8440   19.8410 O      13709 WAT       0.0495
  13710 WAT        10.9090   16.0940   19.0910 O      13710 WAT       0.0989
  13711 WAT        10.9090   16.0940   19.3410 O      13711 WAT       0.1543
  13712 WAT        10.9090   16.0940   19.5910 O      13712 WAT       0.1622
  13713 WAT        10.9090   16.0940   19.8410 O      13713 WAT       0.1155
  13714 WAT        10.9090   16.0940   20.0910 O      13714 WAT       0.0558
  13715 WAT        10.9090   16.3440    6.8410 O      13715 WAT       0.0472
  13716 WAT        10.9090   16.3440    7.0910 O      13716 WAT       0.0454
  13717 WAT        10.9090   16.3440   18.8410 O      13717 WAT       0.0738
  13718 WAT        10.9090   16.3440   19.0910 O      13718 WAT       0.1739
  13719 WAT        10.9090   16.3440   19.3410 O      13719 WAT       0.2767
  13720 WAT        10.9090   16.3440   19.5910 O      13720 WAT       0.2988
  13721 WAT        10.9090   16.3440   19.8410 O      13721 WAT       0.2195
  13722 WAT        10.9090   16.3440   20.0910 O      13722 WAT       0.1101
  13723 WAT        10.9090   16.5940    6.8410 O      13723 WAT       0.0492
  13724 WAT        10.9090   16.5940    7.0910 O      13724 WAT       0.0474
  13725 WAT        10.9090   16.5940   18.8410 O      13725 WAT       0.1032
  13726 WAT        10.9090   16.5940   19.0910 O      13726 WAT       0.2449
  13727 WAT        10.9090   16.5940   19.3410 O      13727 WAT       0.3948
  13728 WAT        10.9090   16.5940   19.5910 O      13728 WAT       0.4325
  13729 WAT        10.9090   16.5940   19.8410 O      13729 WAT       0.3226
  13730 WAT        10.9090   16.5940   20.0910 O      13730 WAT       0.1649
  13731 WAT        10.9090   16.5940   20.3410 O      13731 WAT       0.0577
  13732 WAT        10.9090   16.8440    6.8410 O      13732 WAT       0.0470
  13733 WAT        10.9090   16.8440    7.0910 O      13733 WAT       0.0455
  13734 WAT        10.9090   16.8440   18.8410 O      13734 WAT       0.1076
  13735 WAT        10.9090   16.8440   19.0910 O      13735 WAT       0.2583
  13736 WAT        10.9090   16.8440   19.3410 O      13736 WAT       0.4208
  13737 WAT        10.9090   16.8440   19.5910 O      13737 WAT       0.4660
  13738 WAT        10.9090   16.8440   19.8410 O      13738 WAT       0.3513
  13739 WAT        10.9090   16.8440   20.0910 O      13739 WAT       0.1816
  13740 WAT        10.9090   16.8440   20.3410 O      13740 WAT       0.0646
  13741 WAT        10.9090   17.0940   18.8410 O      13741 WAT       0.0792
  13742 WAT        10.9090   17.0940   19.0910 O      13742 WAT       0.1936
  13743 WAT        10.9090   17.0940   19.3410 O      13743 WAT       0.3192
  13744 WAT        10.9090   17.0940   19.5910 O      13744 WAT       0.3575
  13745 WAT        10.9090   17.0940   19.8410 O      13745 WAT       0.2727
  13746 WAT        10.9090   17.0940   20.0910 O      13746 WAT       0.1429
  13747 WAT        10.9090   17.0940   20.3410 O      13747 WAT       0.0517
  13748 WAT        10.9090   17.3440   19.0910 O      13748 WAT       0.0991
  13749 WAT        10.9090   17.3440   19.3410 O      13749 WAT       0.1664
  13750 WAT        10.9090   17.3440   19.5910 O      13750 WAT       0.1891
  13751 WAT        10.9090   17.3440   19.8410 O      13751 WAT       0.1467
  13752 WAT        10.9090   17.3440   20.0910 O      13752 WAT       0.0782
  13753 WAT        10.9090   17.5940   19.3410 O      13753 WAT       0.0577
  13754 WAT        10.9090   17.5940   19.5910 O      13754 WAT       0.0672
  13755 WAT        10.9090   17.5940   19.8410 O      13755 WAT       0.0532
  13756 WAT        10.9090   17.8440    7.0910 O      13756 WAT       0.0462
  13757 WAT        10.9090   18.0940    6.3410 O      13757 WAT       0.0454
  13758 WAT        10.9090   18.0940    6.5910 O      13758 WAT       0.0520
  13759 WAT        10.9090   18.0940    6.8410 O      13759 WAT       0.0569
  13760 WAT        10.9090   18.0940    7.0910 O      13760 WAT       0.0589
  13761 WAT        10.9090   18.0940    7.3410 O      13761 WAT       0.0549
  13762 WAT        10.9090   18.3440    6.0910 O      13762 WAT       0.0450
  13763 WAT        10.9090   18.3440    6.3410 O      13763 WAT       0.0524
  13764 WAT        10.9090   18.3440    6.5910 O      13764 WAT       0.0579
  13765 WAT        10.9090   18.3440    6.8410 O      13765 WAT       0.0615
  13766 WAT        10.9090   18.3440    7.0910 O      13766 WAT       0.0629
  13767 WAT        10.9090   18.3440    7.3410 O      13767 WAT       0.0595
  13768 WAT        10.9090   18.3440    7.5910 O      13768 WAT       0.0484
  13769 WAT        10.9090   18.5940    6.3410 O      13769 WAT       0.0482
  13770 WAT        10.9090   18.5940    6.5910 O      13770 WAT       0.0496
  13771 WAT        10.9090   18.5940    6.8410 O      13771 WAT       0.0503
  13772 WAT        10.9090   18.5940    7.0910 O      13772 WAT       0.0507
  13773 WAT        10.9090   18.5940    7.3410 O      13773 WAT       0.0488
  13774 WAT        10.9090   19.8440    4.3410 O      13774 WAT       0.0507
  13775 WAT        10.9090   19.8440    4.5910 O      13775 WAT       0.0546
  13776 WAT        10.9090   19.8440    4.8410 O      13776 WAT       0.0485
  13777 WAT        10.9090   20.0940    4.0910 O      13777 WAT       0.0508
  13778 WAT        10.9090   20.0940    4.3410 O      13778 WAT       0.0619
  13779 WAT        10.9090   20.0940    4.5910 O      13779 WAT       0.0660
  13780 WAT        10.9090   20.0940    4.8410 O      13780 WAT       0.0558
  13781 WAT        10.9090   20.3440    4.0910 O      13781 WAT       0.0526
  13782 WAT        10.9090   20.3440    4.3410 O      13782 WAT       0.0654
  13783 WAT        10.9090   20.3440    4.5910 O      13783 WAT       0.0694
  13784 WAT        10.9090   20.3440    4.8410 O      13784 WAT       0.0571
  13785 WAT        10.9090   20.5940    4.0910 O      13785 WAT       0.0466
  13786 WAT        10.9090   20.5940    4.3410 O      13786 WAT       0.0591
  13787 WAT        10.9090   20.5940    4.5910 O      13787 WAT       0.0630
  13788 WAT        10.9090   20.5940    4.8410 O      13788 WAT       0.0518
  13789 WAT        10.9090   20.8440    4.3410 O      13789 WAT       0.0457
  13790 WAT        10.9090   20.8440    4.5910 O      13790 WAT       0.0499
  13791 WAT        10.9090   23.3440    5.0910 O      13791 WAT       0.0498
  13792 WAT        10.9090   23.3440    5.3410 O      13792 WAT       0.0491
  13793 WAT        10.9090   23.5940    4.8410 O      13793 WAT       0.0483
  13794 WAT        10.9090   23.5940    5.0910 O      13794 WAT       0.0650
  13795 WAT        10.9090   23.5940    5.3410 O      13795 WAT       0.0681
  13796 WAT        10.9090   23.5940    5.5910 O      13796 WAT       0.0562
  13797 WAT        10.9090   23.8440    4.8410 O      13797 WAT       0.0518
  13798 WAT        10.9090   23.8440    5.0910 O      13798 WAT       0.0721
  13799 WAT        10.9090   23.8440    5.3410 O      13799 WAT       0.0783
  13800 WAT        10.9090   23.8440    5.5910 O      13800 WAT       0.0673
  13801 WAT        10.9090   23.8440    5.8410 O      13801 WAT       0.0461
  13802 WAT        10.9090   24.0940    5.0910 O      13802 WAT       0.0632
  13803 WAT        10.9090   24.0940    5.3410 O      13803 WAT       0.0704
  13804 WAT        10.9090   24.0940    5.5910 O      13804 WAT       0.0626
  13805 WAT        10.9090   24.3440    5.3410 O      13805 WAT       0.0466
  13806 WAT        11.1590    8.5940   14.3410 O      13806 WAT       0.0463
  13807 WAT        11.1590    8.5940   14.5910 O      13807 WAT       0.0476
  13808 WAT        11.1590    8.5940   14.8410 O      13808 WAT       0.0461
  13809 WAT        11.1590    8.8440   14.0910 O      13809 WAT       0.0485
  13810 WAT        11.1590    8.8440   14.3410 O      13810 WAT       0.0520
  13811 WAT        11.1590    8.8440   14.5910 O      13811 WAT       0.0531
  13812 WAT        11.1590    8.8440   14.8410 O      13812 WAT       0.0507
  13813 WAT        11.1590    9.0940   13.8410 O      13813 WAT       0.0460
  13814 WAT        11.1590    9.0940   14.0910 O      13814 WAT       0.0519
  13815 WAT        11.1590    9.0940   14.3410 O      13815 WAT       0.0560
  13816 WAT        11.1590    9.0940   14.5910 O      13816 WAT       0.0570
  13817 WAT        11.1590    9.0940   14.8410 O      13817 WAT       0.0541
  13818 WAT        11.1590    9.0940   15.0910 O      13818 WAT       0.0465
  13819 WAT        11.1590    9.3440   13.8410 O      13819 WAT       0.0459
  13820 WAT        11.1590    9.3440   14.0910 O      13820 WAT       0.0522
  13821 WAT        11.1590    9.3440   14.3410 O      13821 WAT       0.0567
  13822 WAT        11.1590    9.3440   14.5910 O      13822 WAT       0.0580
  13823 WAT        11.1590    9.3440   14.8410 O      13823 WAT       0.0553
  13824 WAT        11.1590    9.3440   15.0910 O      13824 WAT       0.0480
  13825 WAT        11.1590    9.5940   14.0910 O      13825 WAT       0.0487
  13826 WAT        11.1590    9.5940   14.3410 O      13826 WAT       0.0533
  13827 WAT        11.1590    9.5940   14.5910 O      13827 WAT       0.0555
  13828 WAT        11.1590    9.5940   14.8410 O      13828 WAT       0.0538
  13829 WAT        11.1590    9.5940   15.0910 O      13829 WAT       0.0478
  13830 WAT        11.1590    9.8440   14.3410 O      13830 WAT       0.0463
  13831 WAT        11.1590    9.8440   14.5910 O      13831 WAT       0.0491
  13832 WAT        11.1590    9.8440   14.8410 O      13832 WAT       0.0490
  13833 WAT        11.1590    9.8440   15.0910 O      13833 WAT       0.0454
  13834 WAT        11.1590   10.0940   15.8410 O      13834 WAT       0.0454
  13835 WAT        11.1590   10.3440   15.5910 O      13835 WAT       0.0510
  13836 WAT        11.1590   10.3440   15.8410 O      13836 WAT       0.0582
  13837 WAT        11.1590   10.3440   16.0910 O      13837 WAT       0.0542
  13838 WAT        11.1590   10.5940   15.5910 O      13838 WAT       0.0558
  13839 WAT        11.1590   10.5940   15.8410 O      13839 WAT       0.0700
  13840 WAT        11.1590   10.5940   16.0910 O      13840 WAT       0.0690
  13841 WAT        11.1590   10.5940   16.3410 O      13841 WAT       0.0503
  13842 WAT        11.1590   10.8440   15.5910 O      13842 WAT       0.0566
  13843 WAT        11.1590   10.8440   15.8410 O      13843 WAT       0.0784
  13844 WAT        11.1590   10.8440   16.0910 O      13844 WAT       0.0831
  13845 WAT        11.1590   10.8440   16.3410 O      13845 WAT       0.0640
  13846 WAT        11.1590   11.0940   15.5910 O      13846 WAT       0.0523
  13847 WAT        11.1590   11.0940   15.8410 O      13847 WAT       0.0802
  13848 WAT        11.1590   11.0940   16.0910 O      13848 WAT       0.0925
  13849 WAT        11.1590   11.0940   16.3410 O      13849 WAT       0.0766
  13850 WAT        11.1590   11.3440   15.8410 O      13850 WAT       0.0734
  13851 WAT        11.1590   11.3440   16.0910 O      13851 WAT       0.0926
  13852 WAT        11.1590   11.3440   16.3410 O      13852 WAT       0.0835
  13853 WAT        11.1590   11.3440   16.5910 O      13853 WAT       0.0532
  13854 WAT        11.1590   11.5940   15.8410 O      13854 WAT       0.0599
  13855 WAT        11.1590   11.5940   16.0910 O      13855 WAT       0.0831
  13856 WAT        11.1590   11.5940   16.3410 O      13856 WAT       0.0824
  13857 WAT        11.1590   11.5940   16.5910 O      13857 WAT       0.0579
  13858 WAT        11.1590   11.8440   16.0910 O      13858 WAT       0.0682
  13859 WAT        11.1590   11.8440   16.3410 O      13859 WAT       0.0747
  13860 WAT        11.1590   11.8440   16.5910 O      13860 WAT       0.0581
  13861 WAT        11.1590   12.0940   16.0910 O      13861 WAT       0.0519
  13862 WAT        11.1590   12.0940   16.3410 O      13862 WAT       0.0618
  13863 WAT        11.1590   12.0940   16.5910 O      13863 WAT       0.0525
  13864 WAT        11.1590   12.3440   16.3410 O      13864 WAT       0.0455
  13865 WAT        11.1590   13.3440    9.3410 O      13865 WAT       0.0457
  13866 WAT        11.1590   13.3440   15.8410 O      13866 WAT       0.0476
  13867 WAT        11.1590   13.3440   16.0910 O      13867 WAT       0.0502
  13868 WAT        11.1590   13.5940   15.5910 O      13868 WAT       0.0607
  13869 WAT        11.1590   13.5940   15.8410 O      13869 WAT       0.0779
  13870 WAT        11.1590   13.5940   16.0910 O      13870 WAT       0.0759
  13871 WAT        11.1590   13.5940   16.3410 O      13871 WAT       0.0559
  13872 WAT        11.1590   13.8440   15.3410 O      13872 WAT       0.0577
  13873 WAT        11.1590   13.8440   15.5910 O      13873 WAT       0.0869
  13874 WAT        11.1590   13.8440   15.8410 O      13874 WAT       0.1023
  13875 WAT        11.1590   13.8440   16.0910 O      13875 WAT       0.0925
  13876 WAT        11.1590   13.8440   16.3410 O      13876 WAT       0.0642
  13877 WAT        11.1590   14.0940   15.0910 O      13877 WAT       0.0450
  13878 WAT        11.1590   14.0940   15.3410 O      13878 WAT       0.0725
  13879 WAT        11.1590   14.0940   15.5910 O      13879 WAT       0.0965
  13880 WAT        11.1590   14.0940   15.8410 O      13880 WAT       0.1028
  13881 WAT        11.1590   14.0940   16.0910 O      13881 WAT       0.0863
  13882 WAT        11.1590   14.0940   16.3410 O      13882 WAT       0.0576
  13883 WAT        11.1590   14.3440   15.0910 O      13883 WAT       0.0532
  13884 WAT        11.1590   14.3440   15.3410 O      13884 WAT       0.0718
  13885 WAT        11.1590   14.3440   15.5910 O      13885 WAT       0.0826
  13886 WAT        11.1590   14.3440   15.8410 O      13886 WAT       0.0785
  13887 WAT        11.1590   14.3440   16.0910 O      13887 WAT       0.0616
  13888 WAT        11.1590   14.5940   15.0910 O      13888 WAT       0.0527
  13889 WAT        11.1590   14.5940   15.3410 O      13889 WAT       0.0579
  13890 WAT        11.1590   14.5940   15.5910 O      13890 WAT       0.0560
  13891 WAT        11.1590   14.5940   15.8410 O      13891 WAT       0.0469
  13892 WAT        11.1590   14.5940   17.0910 O      13892 WAT       0.0473
  13893 WAT        11.1590   14.5940   17.3410 O      13893 WAT       0.0480
  13894 WAT        11.1590   14.8440   14.8410 O      13894 WAT       0.0488
  13895 WAT        11.1590   14.8440   15.0910 O      13895 WAT       0.0474
  13896 WAT        11.1590   14.8440   16.8410 O      13896 WAT       0.0526
  13897 WAT        11.1590   14.8440   17.0910 O      13897 WAT       0.0716
  13898 WAT        11.1590   14.8440   17.3410 O      13898 WAT       0.0755
  13899 WAT        11.1590   14.8440   17.5910 O      13899 WAT       0.0594
  13900 WAT        11.1590   15.0940   14.5910 O      13900 WAT       0.0490
  13901 WAT        11.1590   15.0940   14.8410 O      13901 WAT       0.0502
  13902 WAT        11.1590   15.0940   16.8410 O      13902 WAT       0.0600
  13903 WAT        11.1590   15.0940   17.0910 O      13903 WAT       0.0831
  13904 WAT        11.1590   15.0940   17.3410 O      13904 WAT       0.0882
  13905 WAT        11.1590   15.0940   17.5910 O      13905 WAT       0.0694
  13906 WAT        11.1590   15.3440   16.8410 O      13906 WAT       0.0612
  13907 WAT        11.1590   15.3440   17.0910 O      13907 WAT       0.0812
  13908 WAT        11.1590   15.3440   17.3410 O      13908 WAT       0.0825
  13909 WAT        11.1590   15.3440   17.5910 O      13909 WAT       0.0625
  13910 WAT        11.1590   15.5940   16.8410 O      13910 WAT       0.0640
  13911 WAT        11.1590   15.5940   17.0910 O      13911 WAT       0.0782
  13912 WAT        11.1590   15.5940   17.3410 O      13912 WAT       0.0724
  13913 WAT        11.1590   15.5940   17.5910 O      13913 WAT       0.0495
  13914 WAT        11.1590   15.8440   16.8410 O      13914 WAT       0.0654
  13915 WAT        11.1590   15.8440   17.0910 O      13915 WAT       0.0759
  13916 WAT        11.1590   15.8440   17.3410 O      13916 WAT       0.0648
  13917 WAT        11.1590   16.0940    6.8410 O      13917 WAT       0.0452
  13918 WAT        11.1590   16.0940   16.8410 O      13918 WAT       0.0548
  13919 WAT        11.1590   16.0940   17.0910 O      13919 WAT       0.0630
  13920 WAT        11.1590   16.0940   17.3410 O      13920 WAT       0.0519
  13921 WAT        11.1590   16.0940   19.0910 O      13921 WAT       0.0542
  13922 WAT        11.1590   16.0940   19.3410 O      13922 WAT       0.0905
  13923 WAT        11.1590   16.0940   19.5910 O      13923 WAT       0.1015
  13924 WAT        11.1590   16.0940   19.8410 O      13924 WAT       0.0772
  13925 WAT        11.1590   16.3440    6.5910 O      13925 WAT       0.0456
  13926 WAT        11.1590   16.3440    6.8410 O      13926 WAT       0.0485
  13927 WAT        11.1590   16.3440   19.0910 O      13927 WAT       0.0980
  13928 WAT        11.1590   16.3440   19.3410 O      13928 WAT       0.1664
  13929 WAT        11.1590   16.3440   19.5910 O      13929 WAT       0.1911
  13930 WAT        11.1590   16.3440   19.8410 O      13930 WAT       0.1495
  13931 WAT        11.1590   16.3440   20.0910 O      13931 WAT       0.0801
  13932 WAT        11.1590   16.5940    6.5910 O      13932 WAT       0.0466
  13933 WAT        11.1590   16.5940    6.8410 O      13933 WAT       0.0493
  13934 WAT        11.1590   16.5940   18.8410 O      13934 WAT       0.0545
  13935 WAT        11.1590   16.5940   19.0910 O      13935 WAT       0.1395
  13936 WAT        11.1590   16.5940   19.3410 O      13936 WAT       0.2391
  13937 WAT        11.1590   16.5940   19.5910 O      13937 WAT       0.2779
  13938 WAT        11.1590   16.5940   19.8410 O      13938 WAT       0.2201
  13939 WAT        11.1590   16.5940   20.0910 O      13939 WAT       0.1196
  13940 WAT        11.1590   16.8440    6.8410 O      13940 WAT       0.0458
  13941 WAT        11.1590   16.8440   18.8410 O      13941 WAT       0.0571
  13942 WAT        11.1590   16.8440   19.0910 O      13942 WAT       0.1474
  13943 WAT        11.1590   16.8440   19.3410 O      13943 WAT       0.2549
  13944 WAT        11.1590   16.8440   19.5910 O      13944 WAT       0.2987
  13945 WAT        11.1590   16.8440   19.8410 O      13945 WAT       0.2382
  13946 WAT        11.1590   16.8440   20.0910 O      13946 WAT       0.1302
  13947 WAT        11.1590   16.8440   20.3410 O      13947 WAT       0.0489
  13948 WAT        11.1590   17.0940   19.0910 O      13948 WAT       0.1102
  13949 WAT        11.1590   17.0940   19.3410 O      13949 WAT       0.1928
  13950 WAT        11.1590   17.0940   19.5910 O      13950 WAT       0.2280
  13951 WAT        11.1590   17.0940   19.8410 O      13951 WAT       0.1833
  13952 WAT        11.1590   17.0940   20.0910 O      13952 WAT       0.1010
  13953 WAT        11.1590   17.3440   19.0910 O      13953 WAT       0.0559
  13954 WAT        11.1590   17.3440   19.3410 O      13954 WAT       0.0999
  13955 WAT        11.1590   17.3440   19.5910 O      13955 WAT       0.1197
  13956 WAT        11.1590   17.3440   19.8410 O      13956 WAT       0.0974
  13957 WAT        11.1590   17.3440   20.0910 O      13957 WAT       0.0542
  13958 WAT        11.1590   18.0940    6.3410 O      13958 WAT       0.0457
  13959 WAT        11.1590   18.0940    6.5910 O      13959 WAT       0.0462
  13960 WAT        11.1590   18.3440    6.0910 O      13960 WAT       0.0472
  13961 WAT        11.1590   18.3440    6.3410 O      13961 WAT       0.0490
  13962 WAT        11.1590   18.3440    6.5910 O      13962 WAT       0.0471
  13963 WAT        11.1590   19.5940    4.3410 O      13963 WAT       0.0520
  13964 WAT        11.1590   19.5940    4.5910 O      13964 WAT       0.0558
  13965 WAT        11.1590   19.5940    4.8410 O      13965 WAT       0.0507
  13966 WAT        11.1590   19.8440    3.8410 O      13966 WAT       0.0463
  13967 WAT        11.1590   19.8440    4.0910 O      13967 WAT       0.0572
  13968 WAT        11.1590   19.8440    4.3410 O      13968 WAT       0.0687
  13969 WAT        11.1590   19.8440    4.5910 O      13969 WAT       0.0726
  13970 WAT        11.1590   19.8440    4.8410 O      13970 WAT       0.0616
  13971 WAT        11.1590   20.0940    3.8410 O      13971 WAT       0.0494
  13972 WAT        11.1590   20.0940    4.0910 O      13972 WAT       0.0637
  13973 WAT        11.1590   20.0940    4.3410 O      13973 WAT       0.0782
  13974 WAT        11.1590   20.0940    4.5910 O      13974 WAT       0.0820
  13975 WAT        11.1590   20.0940    4.8410 O      13975 WAT       0.0665
  13976 WAT        11.1590   20.3440    3.8410 O      13976 WAT       0.0452
  13977 WAT        11.1590   20.3440    4.0910 O      13977 WAT       0.0607
  13978 WAT        11.1590   20.3440    4.3410 O      13978 WAT       0.0759
  13979 WAT        11.1590   20.3440    4.5910 O      13979 WAT       0.0788
  13980 WAT        11.1590   20.3440    4.8410 O      13980 WAT       0.0619
  13981 WAT        11.1590   20.5940    4.0910 O      13981 WAT       0.0493
  13982 WAT        11.1590   20.5940    4.3410 O      13982 WAT       0.0625
  13983 WAT        11.1590   20.5940    4.5910 O      13983 WAT       0.0646
  13984 WAT        11.1590   20.5940    4.8410 O      13984 WAT       0.0498
  13985 WAT        11.1590   20.8440    4.5910 O      13985 WAT       0.0458
  13986 WAT        11.1590   23.3440    5.0910 O      13986 WAT       0.0452
  13987 WAT        11.1590   23.3440    5.3410 O      13987 WAT       0.0460
  13988 WAT        11.1590   23.5940    5.0910 O      13988 WAT       0.0553
  13989 WAT        11.1590   23.5940    5.3410 O      13989 WAT       0.0618
  13990 WAT        11.1590   23.5940    5.5910 O      13990 WAT       0.0512
  13991 WAT        11.1590   23.8440    5.0910 O      13991 WAT       0.0586
  13992 WAT        11.1590   23.8440    5.3410 O      13992 WAT       0.0694
  13993 WAT        11.1590   23.8440    5.5910 O      13993 WAT       0.0608
  13994 WAT        11.1590   24.0940    5.0910 O      13994 WAT       0.0503
  13995 WAT        11.1590   24.0940    5.3410 O      13995 WAT       0.0616
  13996 WAT        11.1590   24.0940    5.5910 O      13996 WAT       0.0559
  13997 WAT        11.4090    8.3440   14.0910 O      13997 WAT       0.0455
  13998 WAT        11.4090    8.3440   14.3410 O      13998 WAT       0.0457
  13999 WAT        11.4090    8.5940   13.5910 O      13999 WAT       0.0473
  14000 WAT        11.4090    8.5940   13.8410 O      14000 WAT       0.0524
  14001 WAT        11.4090    8.5940   14.0910 O      14001 WAT       0.0555
  14002 WAT        11.4090    8.5940   14.3410 O      14002 WAT       0.0563
  14003 WAT        11.4090    8.5940   14.5910 O      14003 WAT       0.0544
  14004 WAT        11.4090    8.5940   14.8410 O      14004 WAT       0.0489
  14005 WAT        11.4090    8.8440   13.5910 O      14005 WAT       0.0508
  14006 WAT        11.4090    8.8440   13.8410 O      14006 WAT       0.0580
  14007 WAT        11.4090    8.8440   14.0910 O      14007 WAT       0.0629
  14008 WAT        11.4090    8.8440   14.3410 O      14008 WAT       0.0649
  14009 WAT        11.4090    8.8440   14.5910 O      14009 WAT       0.0632
  14010 WAT        11.4090    8.8440   14.8410 O      14010 WAT       0.0566
  14011 WAT        11.4090    9.0940   13.5910 O      14011 WAT       0.0517
  14012 WAT        11.4090    9.0940   13.8410 O      14012 WAT       0.0602
  14013 WAT        11.4090    9.0940   14.0910 O      14013 WAT       0.0667
  14014 WAT        11.4090    9.0940   14.3410 O      14014 WAT       0.0701
  14015 WAT        11.4090    9.0940   14.5910 O      14015 WAT       0.0690
  14016 WAT        11.4090    9.0940   14.8410 O      14016 WAT       0.0624
  14017 WAT        11.4090    9.0940   15.0910 O      14017 WAT       0.0500
  14018 WAT        11.4090    9.3440   13.5910 O      14018 WAT       0.0492
  14019 WAT        11.4090    9.3440   13.8410 O      14019 WAT       0.0576
  14020 WAT        11.4090    9.3440   14.0910 O      14020 WAT       0.0648
  14021 WAT        11.4090    9.3440   14.3410 O      14021 WAT       0.0694
  14022 WAT        11.4090    9.3440   14.5910 O      14022 WAT       0.0697
  14023 WAT        11.4090    9.3440   14.8410 O      14023 WAT       0.0646
  14024 WAT        11.4090    9.3440   15.0910 O      14024 WAT       0.0535
  14025 WAT        11.4090    9.5940   13.8410 O      14025 WAT       0.0501
  14026 WAT        11.4090    9.5940   14.0910 O      14026 WAT       0.0569
  14027 WAT        11.4090    9.5940   14.3410 O      14027 WAT       0.0621
  14028 WAT        11.4090    9.5940   14.5910 O      14028 WAT       0.0644
  14029 WAT        11.4090    9.5940   14.8410 O      14029 WAT       0.0620
  14030 WAT        11.4090    9.5940   15.0910 O      14030 WAT       0.0539
  14031 WAT        11.4090    9.8440   14.3410 O      14031 WAT       0.0495
  14032 WAT        11.4090    9.8440   14.5910 O      14032 WAT       0.0532
  14033 WAT        11.4090    9.8440   14.8410 O      14033 WAT       0.0538
  14034 WAT        11.4090    9.8440   15.0910 O      14034 WAT       0.0500
  14035 WAT        11.4090   10.3440   15.5910 O      14035 WAT       0.0505
  14036 WAT        11.4090   10.3440   15.8410 O      14036 WAT       0.0563
  14037 WAT        11.4090   10.3440   16.0910 O      14037 WAT       0.0494
  14038 WAT        11.4090   10.5940   15.5910 O      14038 WAT       0.0531
  14039 WAT        11.4090   10.5940   15.8410 O      14039 WAT       0.0669
  14040 WAT        11.4090   10.5940   16.0910 O      14040 WAT       0.0635
  14041 WAT        11.4090   10.8440   15.5910 O      14041 WAT       0.0511
  14042 WAT        11.4090   10.8440   15.8410 O      14042 WAT       0.0725
  14043 WAT        11.4090   10.8440   16.0910 O      14043 WAT       0.0752
  14044 WAT        11.4090   10.8440   16.3410 O      14044 WAT       0.0545
  14045 WAT        11.4090   11.0940   15.8410 O      14045 WAT       0.0714
  14046 WAT        11.4090   11.0940   16.0910 O      14046 WAT       0.0811
  14047 WAT        11.4090   11.0940   16.3410 O      14047 WAT       0.0635
  14048 WAT        11.4090   11.3440   15.8410 O      14048 WAT       0.0628
  14049 WAT        11.4090   11.3440   16.0910 O      14049 WAT       0.0783
  14050 WAT        11.4090   11.3440   16.3410 O      14050 WAT       0.0669
  14051 WAT        11.4090   11.5940   15.8410 O      14051 WAT       0.0489
  14052 WAT        11.4090   11.5940   16.0910 O      14052 WAT       0.0673
  14053 WAT        11.4090   11.5940   16.3410 O      14053 WAT       0.0633
  14054 WAT        11.4090   11.8440   16.0910 O      14054 WAT       0.0524
  14055 WAT        11.4090   11.8440   16.3410 O      14055 WAT       0.0546
  14056 WAT        11.4090   13.5940   15.8410 O      14056 WAT       0.0450
  14057 WAT        11.4090   13.8440   15.5910 O      14057 WAT       0.0503
  14058 WAT        11.4090   13.8440   15.8410 O      14058 WAT       0.0605
  14059 WAT        11.4090   13.8440   16.0910 O      14059 WAT       0.0551
  14060 WAT        11.4090   14.0940   15.5910 O      14060 WAT       0.0571
  14061 WAT        11.4090   14.0940   15.8410 O      14061 WAT       0.0620
  14062 WAT        11.4090   14.0940   16.0910 O      14062 WAT       0.0524
  14063 WAT        11.4090   14.3440   15.5910 O      14063 WAT       0.0499
  14064 WAT        11.4090   14.3440   15.8410 O      14064 WAT       0.0481
  14065 WAT        11.4090   14.5940   17.0910 O      14065 WAT       0.0493
  14066 WAT        11.4090   14.5940   17.3410 O      14066 WAT       0.0494
  14067 WAT        11.4090   14.8440   16.8410 O      14067 WAT       0.0611
  14068 WAT        11.4090   14.8440   17.0910 O      14068 WAT       0.0828
  14069 WAT        11.4090   14.8440   17.3410 O      14069 WAT       0.0861
  14070 WAT        11.4090   14.8440   17.5910 O      14070 WAT       0.0663
  14071 WAT        11.4090   15.0940   16.5910 O      14071 WAT       0.0483
  14072 WAT        11.4090   15.0940   16.8410 O      14072 WAT       0.0812
  14073 WAT        11.4090   15.0940   17.0910 O      14073 WAT       0.1110
  14074 WAT        11.4090   15.0940   17.3410 O      14074 WAT       0.1156
  14075 WAT        11.4090   15.0940   17.5910 O      14075 WAT       0.0887
  14076 WAT        11.4090   15.0940   17.8410 O      14076 WAT       0.0495
  14077 WAT        11.4090   15.3440   16.5910 O      14077 WAT       0.0653
  14078 WAT        11.4090   15.3440   16.8410 O      14078 WAT       0.1059
  14079 WAT        11.4090   15.3440   17.0910 O      14079 WAT       0.1379
  14080 WAT        11.4090   15.3440   17.3410 O      14080 WAT       0.1362
  14081 WAT        11.4090   15.3440   17.5910 O      14081 WAT       0.0992
  14082 WAT        11.4090   15.3440   17.8410 O      14082 WAT       0.0524
  14083 WAT        11.4090   15.5940   16.3410 O      14083 WAT       0.0500
  14084 WAT        11.4090   15.5940   16.5910 O      14084 WAT       0.0915
  14085 WAT        11.4090   15.5940   16.8410 O      14085 WAT       0.1437
  14086 WAT        11.4090   15.5940   17.0910 O      14086 WAT       0.1763
  14087 WAT        11.4090   15.5940   17.3410 O      14087 WAT       0.1615
  14088 WAT        11.4090   15.5940   17.5910 O      14088 WAT       0.1078
  14089 WAT        11.4090   15.5940   17.8410 O      14089 WAT       0.0515
  14090 WAT        11.4090   15.8440   16.3410 O      14090 WAT       0.0579
  14091 WAT        11.4090   15.8440   16.5910 O      14091 WAT       0.1107
  14092 WAT        11.4090   15.8440   16.8410 O      14092 WAT       0.1746
  14093 WAT        11.4090   15.8440   17.0910 O      14093 WAT       0.2092
  14094 WAT        11.4090   15.8440   17.3410 O      14094 WAT       0.1830
  14095 WAT        11.4090   15.8440   17.5910 O      14095 WAT       0.1145
  14096 WAT        11.4090   15.8440   17.8410 O      14096 WAT       0.0502
  14097 WAT        11.4090   16.0940    6.5910 O      14097 WAT       0.0459
  14098 WAT        11.4090   16.0940    6.8410 O      14098 WAT       0.0482
  14099 WAT        11.4090   16.0940   16.3410 O      14099 WAT       0.0487
  14100 WAT        11.4090   16.0940   16.5910 O      14100 WAT       0.0994
  14101 WAT        11.4090   16.0940   16.8410 O      14101 WAT       0.1611
  14102 WAT        11.4090   16.0940   17.0910 O      14102 WAT       0.1937
  14103 WAT        11.4090   16.0940   17.3410 O      14103 WAT       0.1671
  14104 WAT        11.4090   16.0940   17.5910 O      14104 WAT       0.1015
  14105 WAT        11.4090   16.3440    6.5910 O      14105 WAT       0.0490
  14106 WAT        11.4090   16.3440    6.8410 O      14106 WAT       0.0503
  14107 WAT        11.4090   16.3440   16.5910 O      14107 WAT       0.0616
  14108 WAT        11.4090   16.3440   16.8410 O      14108 WAT       0.1036
  14109 WAT        11.4090   16.3440   17.0910 O      14109 WAT       0.1263
  14110 WAT        11.4090   16.3440   17.3410 O      14110 WAT       0.1090
  14111 WAT        11.4090   16.3440   17.5910 O      14111 WAT       0.0653
  14112 WAT        11.4090   16.3440   19.3410 O      14112 WAT       0.0680
  14113 WAT        11.4090   16.3440   19.5910 O      14113 WAT       0.0829
  14114 WAT        11.4090   16.3440   19.8410 O      14114 WAT       0.0689
  14115 WAT        11.4090   16.5940    6.5910 O      14115 WAT       0.0490
  14116 WAT        11.4090   16.5940    6.8410 O      14116 WAT       0.0494
  14117 WAT        11.4090   16.5940   17.0910 O      14117 WAT       0.0548
  14118 WAT        11.4090   16.5940   17.3410 O      14118 WAT       0.0474
  14119 WAT        11.4090   16.5940   19.0910 O      14119 WAT       0.0536
  14120 WAT        11.4090   16.5940   19.3410 O      14120 WAT       0.0980
  14121 WAT        11.4090   16.5940   19.5910 O      14121 WAT       0.1205
  14122 WAT        11.4090   16.5940   19.8410 O      14122 WAT       0.1010
  14123 WAT        11.4090   16.5940   20.0910 O      14123 WAT       0.0579
  14124 WAT        11.4090   16.8440    6.5910 O      14124 WAT       0.0451
  14125 WAT        11.4090   16.8440   19.0910 O      14125 WAT       0.0563
  14126 WAT        11.4090   16.8440   19.3410 O      14126 WAT       0.1036
  14127 WAT        11.4090   16.8440   19.5910 O      14127 WAT       0.1280
  14128 WAT        11.4090   16.8440   19.8410 O      14128 WAT       0.1076
  14129 WAT        11.4090   16.8440   20.0910 O      14129 WAT       0.0619
  14130 WAT        11.4090   17.0940   19.3410 O      14130 WAT       0.0772
  14131 WAT        11.4090   17.0940   19.5910 O      14131 WAT       0.0961
  14132 WAT        11.4090   17.0940   19.8410 O      14132 WAT       0.0811
  14133 WAT        11.4090   17.0940   20.0910 O      14133 WAT       0.0466
  14134 WAT        11.4090   17.3440   19.5910 O      14134 WAT       0.0493
  14135 WAT        11.4090   19.3440    4.3410 O      14135 WAT       0.0484
  14136 WAT        11.4090   19.3440    4.5910 O      14136 WAT       0.0515
  14137 WAT        11.4090   19.3440    4.8410 O      14137 WAT       0.0486
  14138 WAT        11.4090   19.5940    3.8410 O      14138 WAT       0.0493
  14139 WAT        11.4090   19.5940    4.0910 O      14139 WAT       0.0592
  14140 WAT        11.4090   19.5940    4.3410 O      14140 WAT       0.0684
  14141 WAT        11.4090   19.5940    4.5910 O      14141 WAT       0.0711
  14142 WAT        11.4090   19.5940    4.8410 O      14142 WAT       0.0614
  14143 WAT        11.4090   19.8440    3.5910 O      14143 WAT       0.0458
  14144 WAT        11.4090   19.8440    3.8410 O      14144 WAT       0.0571
  14145 WAT        11.4090   19.8440    4.0910 O      14145 WAT       0.0711
  14146 WAT        11.4090   19.8440    4.3410 O      14146 WAT       0.0841
  14147 WAT        11.4090   19.8440    4.5910 O      14147 WAT       0.0864
  14148 WAT        11.4090   19.8440    4.8410 O      14148 WAT       0.0703
  14149 WAT        11.4090   20.0940    3.8410 O      14149 WAT       0.0559
  14150 WAT        11.4090   20.0940    4.0910 O      14150 WAT       0.0727
  14151 WAT        11.4090   20.0940    4.3410 O      14151 WAT       0.0882
  14152 WAT        11.4090   20.0940    4.5910 O      14152 WAT       0.0899
  14153 WAT        11.4090   20.0940    4.8410 O      14153 WAT       0.0699
  14154 WAT        11.4090   20.3440    3.8410 O      14154 WAT       0.0467
  14155 WAT        11.4090   20.3440    4.0910 O      14155 WAT       0.0633
  14156 WAT        11.4090   20.3440    4.3410 O      14156 WAT       0.0783
  14157 WAT        11.4090   20.3440    4.5910 O      14157 WAT       0.0789
  14158 WAT        11.4090   20.3440    4.8410 O      14158 WAT       0.0592
  14159 WAT        11.4090   20.5940    4.0910 O      14159 WAT       0.0473
  14160 WAT        11.4090   20.5940    4.3410 O      14160 WAT       0.0591
  14161 WAT        11.4090   20.5940    4.5910 O      14161 WAT       0.0588
  14162 WAT        11.4090   23.3440    5.0910 O      14162 WAT       0.0473
  14163 WAT        11.4090   23.3440    5.3410 O      14163 WAT       0.0490
  14164 WAT        11.4090   23.5940    5.0910 O      14164 WAT       0.0554
  14165 WAT        11.4090   23.5940    5.3410 O      14165 WAT       0.0635
  14166 WAT        11.4090   23.5940    5.5910 O      14166 WAT       0.0512
  14167 WAT        11.4090   23.8440    5.0910 O      14167 WAT       0.0563
  14168 WAT        11.4090   23.8440    5.3410 O      14168 WAT       0.0691
  14169 WAT        11.4090   23.8440    5.5910 O      14169 WAT       0.0592
  14170 WAT        11.4090   24.0940    5.0910 O      14170 WAT       0.0470
  14171 WAT        11.4090   24.0940    5.3410 O      14171 WAT       0.0601
  14172 WAT        11.4090   24.0940    5.5910 O      14172 WAT       0.0534
  14173 WAT        11.6590    8.3440   13.5910 O      14173 WAT       0.0470
  14174 WAT        11.6590    8.3440   13.8410 O      14174 WAT       0.0486
  14175 WAT        11.6590    8.3440   14.0910 O      14175 WAT       0.0480
  14176 WAT        11.6590    8.3440   14.3410 O      14176 WAT       0.0452
  14177 WAT        11.6590    8.5940   13.3410 O      14177 WAT       0.0480
  14178 WAT        11.6590    8.5940   13.5910 O      14178 WAT       0.0546
  14179 WAT        11.6590    8.5940   13.8410 O      14179 WAT       0.0592
  14180 WAT        11.6590    8.5940   14.0910 O      14180 WAT       0.0606
  14181 WAT        11.6590    8.5940   14.3410 O      14181 WAT       0.0587
  14182 WAT        11.6590    8.5940   14.5910 O      14182 WAT       0.0533
  14183 WAT        11.6590    8.8440   13.3410 O      14183 WAT       0.0498
  14184 WAT        11.6590    8.8440   13.5910 O      14184 WAT       0.0588
  14185 WAT        11.6590    8.8440   13.8410 O      14185 WAT       0.0662
  14186 WAT        11.6590    8.8440   14.0910 O      14186 WAT       0.0702
  14187 WAT        11.6590    8.8440   14.3410 O      14187 WAT       0.0700
  14188 WAT        11.6590    8.8440   14.5910 O      14188 WAT       0.0651
  14189 WAT        11.6590    8.8440   14.8410 O      14189 WAT       0.0547
  14190 WAT        11.6590    9.0940   13.3410 O      14190 WAT       0.0494
  14191 WAT        11.6590    9.0940   13.5910 O      14191 WAT       0.0592
  14192 WAT        11.6590    9.0940   13.8410 O      14192 WAT       0.0680
  14193 WAT        11.6590    9.0940   14.0910 O      14193 WAT       0.0742
  14194 WAT        11.6590    9.0940   14.3410 O      14194 WAT       0.0764
  14195 WAT        11.6590    9.0940   14.5910 O      14195 WAT       0.0731
  14196 WAT        11.6590    9.0940   14.8410 O      14196 WAT       0.0630
  14197 WAT        11.6590    9.0940   15.0910 O      14197 WAT       0.0471
  14198 WAT        11.6590    9.3440   13.3410 O      14198 WAT       0.0459
  14199 WAT        11.6590    9.3440   13.5910 O      14199 WAT       0.0546
  14200 WAT        11.6590    9.3440   13.8410 O      14200 WAT       0.0632
  14201 WAT        11.6590    9.3440   14.0910 O      14201 WAT       0.0704
  14202 WAT        11.6590    9.3440   14.3410 O      14202 WAT       0.0747
  14203 WAT        11.6590    9.3440   14.5910 O      14203 WAT       0.0741
  14204 WAT        11.6590    9.3440   14.8410 O      14204 WAT       0.0667
  14205 WAT        11.6590    9.3440   15.0910 O      14205 WAT       0.0526
  14206 WAT        11.6590    9.5940   13.5910 O      14206 WAT       0.0450
  14207 WAT        11.6590    9.5940   13.8410 O      14207 WAT       0.0519
  14208 WAT        11.6590    9.5940   14.0910 O      14208 WAT       0.0588
  14209 WAT        11.6590    9.5940   14.3410 O      14209 WAT       0.0643
  14210 WAT        11.6590    9.5940   14.5910 O      14210 WAT       0.0667
  14211 WAT        11.6590    9.5940   14.8410 O      14211 WAT       0.0635
  14212 WAT        11.6590    9.5940   15.0910 O      14212 WAT       0.0537
  14213 WAT        11.6590    9.8440   14.3410 O      14213 WAT       0.0475
  14214 WAT        11.6590    9.8440   14.5910 O      14214 WAT       0.0518
  14215 WAT        11.6590    9.8440   14.8410 O      14215 WAT       0.0527
  14216 WAT        11.6590    9.8440   15.0910 O      14216 WAT       0.0486
  14217 WAT        11.6590   10.5940   15.8410 O      14217 WAT       0.0509
  14218 WAT        11.6590   10.5940   16.0910 O      14218 WAT       0.0468
  14219 WAT        11.6590   10.8440   15.8410 O      14219 WAT       0.0531
  14220 WAT        11.6590   10.8440   16.0910 O      14220 WAT       0.0541
  14221 WAT        11.6590   11.0940   15.8410 O      14221 WAT       0.0502
  14222 WAT        11.6590   11.0940   16.0910 O      14222 WAT       0.0565
  14223 WAT        11.6590   11.3440   16.0910 O      14223 WAT       0.0528
  14224 WAT        11.6590   13.0940    9.0910 O      14224 WAT       0.0455
  14225 WAT        11.6590   14.8440   16.8410 O      14225 WAT       0.0481
  14226 WAT        11.6590   14.8440   17.0910 O      14226 WAT       0.0654
  14227 WAT        11.6590   14.8440   17.3410 O      14227 WAT       0.0678
  14228 WAT        11.6590   14.8440   17.5910 O      14228 WAT       0.0517
  14229 WAT        11.6590   15.0940   16.5910 O      14229 WAT       0.0466
  14230 WAT        11.6590   15.0940   16.8410 O      14230 WAT       0.0787
  14231 WAT        11.6590   15.0940   17.0910 O      14231 WAT       0.1071
  14232 WAT        11.6590   15.0940   17.3410 O      14232 WAT       0.1101
  14233 WAT        11.6590   15.0940   17.5910 O      14233 WAT       0.0827
  14234 WAT        11.6590   15.3440   16.5910 O      14234 WAT       0.0823
  14235 WAT        11.6590   15.3440   16.8410 O      14235 WAT       0.1360
  14236 WAT        11.6590   15.3440   17.0910 O      14236 WAT       0.1771
  14237 WAT        11.6590   15.3440   17.3410 O      14237 WAT       0.1725
  14238 WAT        11.6590   15.3440   17.5910 O      14238 WAT       0.1222
  14239 WAT        11.6590   15.3440   17.8410 O      14239 WAT       0.0619
  14240 WAT        11.6590   15.5940   16.3410 O      14240 WAT       0.0720
  14241 WAT        11.6590   15.5940   16.5910 O      14241 WAT       0.1403
  14242 WAT        11.6590   15.5940   16.8410 O      14242 WAT       0.2302
  14243 WAT        11.6590   15.5940   17.0910 O      14243 WAT       0.2903
  14244 WAT        11.6590   15.5940   17.3410 O      14244 WAT       0.2688
  14245 WAT        11.6590   15.5940   17.5910 O      14245 WAT       0.1785
  14246 WAT        11.6590   15.5940   17.8410 O      14246 WAT       0.0838
  14247 WAT        11.6590   15.8440    6.5910 O      14247 WAT       0.0460
  14248 WAT        11.6590   15.8440    6.8410 O      14248 WAT       0.0490
  14249 WAT        11.6590   15.8440   16.3410 O      14249 WAT       0.0922
  14250 WAT        11.6590   15.8440   16.5910 O      14250 WAT       0.1894
  14251 WAT        11.6590   15.8440   16.8410 O      14251 WAT       0.3165
  14252 WAT        11.6590   15.8440   17.0910 O      14252 WAT       0.3973
  14253 WAT        11.6590   15.8440   17.3410 O      14253 WAT       0.3598
  14254 WAT        11.6590   15.8440   17.5910 O      14254 WAT       0.2301
  14255 WAT        11.6590   15.8440   17.8410 O      14255 WAT       0.1026
  14256 WAT        11.6590   16.0940    6.5910 O      14256 WAT       0.0504
  14257 WAT        11.6590   16.0940    6.8410 O      14257 WAT       0.0520
  14258 WAT        11.6590   16.0940   16.3410 O      14258 WAT       0.0833
  14259 WAT        11.6590   16.0940   16.5910 O      14259 WAT       0.1818
  14260 WAT        11.6590   16.0940   16.8410 O      14260 WAT       0.3121
  14261 WAT        11.6590   16.0940   17.0910 O      14261 WAT       0.3948
  14262 WAT        11.6590   16.0940   17.3410 O      14262 WAT       0.3554
  14263 WAT        11.6590   16.0940   17.5910 O      14263 WAT       0.2236
  14264 WAT        11.6590   16.0940   17.8410 O      14264 WAT       0.0971
  14265 WAT        11.6590   16.3440    6.3410 O      14265 WAT       0.0455
  14266 WAT        11.6590   16.3440    6.5910 O      14266 WAT       0.0528
  14267 WAT        11.6590   16.3440    6.8410 O      14267 WAT       0.0527
  14268 WAT        11.6590   16.3440   16.3410 O      14268 WAT       0.0506
  14269 WAT        11.6590   16.3440   16.5910 O      14269 WAT       0.1181
  14270 WAT        11.6590   16.3440   16.8410 O      14270 WAT       0.2090
  14271 WAT        11.6590   16.3440   17.0910 O      14271 WAT       0.2672
  14272 WAT        11.6590   16.3440   17.3410 O      14272 WAT       0.2405
  14273 WAT        11.6590   16.3440   17.5910 O      14273 WAT       0.1501
  14274 WAT        11.6590   16.3440   17.8410 O      14274 WAT       0.0638
  14275 WAT        11.6590   16.5940    6.3410 O      14275 WAT       0.0462
  14276 WAT        11.6590   16.5940    6.5910 O      14276 WAT       0.0516
  14277 WAT        11.6590   16.5940    6.8410 O      14277 WAT       0.0498
  14278 WAT        11.6590   16.5940   16.5910 O      14278 WAT       0.0502
  14279 WAT        11.6590   16.5940   16.8410 O      14279 WAT       0.0922
  14280 WAT        11.6590   16.5940   17.0910 O      14280 WAT       0.1196
  14281 WAT        11.6590   16.5940   17.3410 O      14281 WAT       0.1078
  14282 WAT        11.6590   16.5940   17.5910 O      14282 WAT       0.0666
  14283 WAT        11.6590   16.8440    6.5910 O      14283 WAT       0.0460
  14284 WAT        11.6590   19.3440    3.8410 O      14284 WAT       0.0477
  14285 WAT        11.6590   19.3440    4.0910 O      14285 WAT       0.0556
  14286 WAT        11.6590   19.3440    4.3410 O      14286 WAT       0.0617
  14287 WAT        11.6590   19.3440    4.5910 O      14287 WAT       0.0627
  14288 WAT        11.6590   19.3440    4.8410 O      14288 WAT       0.0553
  14289 WAT        11.6590   19.5940    3.5910 O      14289 WAT       0.0494
  14290 WAT        11.6590   19.5940    3.8410 O      14290 WAT       0.0607
  14291 WAT        11.6590   19.5940    4.0910 O      14291 WAT       0.0724
  14292 WAT        11.6590   19.5940    4.3410 O      14292 WAT       0.0815
  14293 WAT        11.6590   19.5940    4.5910 O      14293 WAT       0.0814
  14294 WAT        11.6590   19.5940    4.8410 O      14294 WAT       0.0669
  14295 WAT        11.6590   19.8440    3.5910 O      14295 WAT       0.0516
  14296 WAT        11.6590   19.8440    3.8410 O      14296 WAT       0.0651
  14297 WAT        11.6590   19.8440    4.0910 O      14297 WAT       0.0803
  14298 WAT        11.6590   19.8440    4.3410 O      14298 WAT       0.0923
  14299 WAT        11.6590   19.8440    4.5910 O      14299 WAT       0.0915
  14300 WAT        11.6590   19.8440    4.8410 O      14300 WAT       0.0714
  14301 WAT        11.6590   20.0940    3.8410 O      14301 WAT       0.0584
  14302 WAT        11.6590   20.0940    4.0910 O      14302 WAT       0.0753
  14303 WAT        11.6590   20.0940    4.3410 O      14303 WAT       0.0890
  14304 WAT        11.6590   20.0940    4.5910 O      14304 WAT       0.0874
  14305 WAT        11.6590   20.0940    4.8410 O      14305 WAT       0.0653
  14306 WAT        11.6590   20.3440    4.0910 O      14306 WAT       0.0604
  14307 WAT        11.6590   20.3440    4.3410 O      14307 WAT       0.0728
  14308 WAT        11.6590   20.3440    4.5910 O      14308 WAT       0.0706
  14309 WAT        11.6590   20.3440    4.8410 O      14309 WAT       0.0506
  14310 WAT        11.6590   20.5940    4.3410 O      14310 WAT       0.0512
  14311 WAT        11.6590   20.5940    4.5910 O      14311 WAT       0.0486
  14312 WAT        11.6590   23.0940    5.0910 O      14312 WAT       0.0466
  14313 WAT        11.6590   23.3440    5.0910 O      14313 WAT       0.0591
  14314 WAT        11.6590   23.3440    5.3410 O      14314 WAT       0.0618
  14315 WAT        11.6590   23.5940    5.0910 O      14315 WAT       0.0656
  14316 WAT        11.6590   23.5940    5.3410 O      14316 WAT       0.0761
  14317 WAT        11.6590   23.5940    5.5910 O      14317 WAT       0.0598
  14318 WAT        11.6590   23.8440    5.0910 O      14318 WAT       0.0631
  14319 WAT        11.6590   23.8440    5.3410 O      14319 WAT       0.0787
  14320 WAT        11.6590   23.8440    5.5910 O      14320 WAT       0.0661
  14321 WAT        11.6590   24.0940    5.0910 O      14321 WAT       0.0505
  14322 WAT        11.6590   24.0940    5.3410 O      14322 WAT       0.0659
  14323 WAT        11.6590   24.0940    5.5910 O      14323 WAT       0.0576
  14324 WAT        11.9090    8.5940   13.3410 O      14324 WAT       0.0482
  14325 WAT        11.9090    8.5940   13.5910 O      14325 WAT       0.0527
  14326 WAT        11.9090    8.5940   13.8410 O      14326 WAT       0.0550
  14327 WAT        11.9090    8.5940   14.0910 O      14327 WAT       0.0540
  14328 WAT        11.9090    8.5940   14.3410 O      14328 WAT       0.0498
  14329 WAT        11.9090    8.8440   13.3410 O      14329 WAT       0.0507
  14330 WAT        11.9090    8.8440   13.5910 O      14330 WAT       0.0575
  14331 WAT        11.9090    8.8440   13.8410 O      14331 WAT       0.0625
  14332 WAT        11.9090    8.8440   14.0910 O      14332 WAT       0.0643
  14333 WAT        11.9090    8.8440   14.3410 O      14333 WAT       0.0621
  14334 WAT        11.9090    8.8440   14.5910 O      14334 WAT       0.0553
  14335 WAT        11.9090    9.0940   13.3410 O      14335 WAT       0.0504
  14336 WAT        11.9090    9.0940   13.5910 O      14336 WAT       0.0581
  14337 WAT        11.9090    9.0940   13.8410 O      14337 WAT       0.0647
  14338 WAT        11.9090    9.0940   14.0910 O      14338 WAT       0.0688
  14339 WAT        11.9090    9.0940   14.3410 O      14339 WAT       0.0695
  14340 WAT        11.9090    9.0940   14.5910 O      14340 WAT       0.0646
  14341 WAT        11.9090    9.0940   14.8410 O      14341 WAT       0.0532
  14342 WAT        11.9090    9.3440   13.3410 O      14342 WAT       0.0462
  14343 WAT        11.9090    9.3440   13.5910 O      14343 WAT       0.0529
  14344 WAT        11.9090    9.3440   13.8410 O      14344 WAT       0.0594
  14345 WAT        11.9090    9.3440   14.0910 O      14345 WAT       0.0649
  14346 WAT        11.9090    9.3440   14.3410 O      14346 WAT       0.0681
  14347 WAT        11.9090    9.3440   14.5910 O      14347 WAT       0.0664
  14348 WAT        11.9090    9.3440   14.8410 O      14348 WAT       0.0579
  14349 WAT        11.9090    9.5940   13.8410 O      14349 WAT       0.0471
  14350 WAT        11.9090    9.5940   14.0910 O      14350 WAT       0.0523
  14351 WAT        11.9090    9.5940   14.3410 O      14351 WAT       0.0569
  14352 WAT        11.9090    9.5940   14.5910 O      14352 WAT       0.0586
  14353 WAT        11.9090    9.5940   14.8410 O      14353 WAT       0.0548
  14354 WAT        11.9090   12.8440    8.8410 O      14354 WAT       0.0466
  14355 WAT        11.9090   12.8440    9.0910 O      14355 WAT       0.0460
  14356 WAT        11.9090   13.0940    8.8410 O      14356 WAT       0.0473
  14357 WAT        11.9090   13.0940    9.0910 O      14357 WAT       0.0455
  14358 WAT        11.9090   13.3440    8.8410 O      14358 WAT       0.0461
  14359 WAT        11.9090   15.0940   16.8410 O      14359 WAT       0.0549
  14360 WAT        11.9090   15.0940   17.0910 O      14360 WAT       0.0754
  14361 WAT        11.9090   15.0940   17.3410 O      14361 WAT       0.0771
  14362 WAT        11.9090   15.0940   17.5910 O      14362 WAT       0.0568
  14363 WAT        11.9090   15.3440   16.5910 O      14363 WAT       0.0732
  14364 WAT        11.9090   15.3440   16.8410 O      14364 WAT       0.1261
  14365 WAT        11.9090   15.3440   17.0910 O      14365 WAT       0.1678
  14366 WAT        11.9090   15.3440   17.3410 O      14366 WAT       0.1644
  14367 WAT        11.9090   15.3440   17.5910 O      14367 WAT       0.1151
  14368 WAT        11.9090   15.3440   17.8410 O      14368 WAT       0.0565
  14369 WAT        11.9090   15.5940    6.5910 O      14369 WAT       0.0453
  14370 WAT        11.9090   15.5940    6.8410 O      14370 WAT       0.0489
  14371 WAT        11.9090   15.5940   16.3410 O      14371 WAT       0.0696
  14372 WAT        11.9090   15.5940   16.5910 O      14372 WAT       0.1460
  14373 WAT        11.9090   15.5940   16.8410 O      14373 WAT       0.2533
  14374 WAT        11.9090   15.5940   17.0910 O      14374 WAT       0.3333
  14375 WAT        11.9090   15.5940   17.3410 O      14375 WAT       0.3177
  14376 WAT        11.9090   15.5940   17.5910 O      14376 WAT       0.2140
  14377 WAT        11.9090   15.5940   17.8410 O      14377 WAT       0.1003
  14378 WAT        11.9090   15.8440    6.5910 O      14378 WAT       0.0506
  14379 WAT        11.9090   15.8440    6.8410 O      14379 WAT       0.0533
  14380 WAT        11.9090   15.8440    7.0910 O      14380 WAT       0.0455
  14381 WAT        11.9090   15.8440   16.3410 O      14381 WAT       0.0968
  14382 WAT        11.9090   15.8440   16.5910 O      14382 WAT       0.2142
  14383 WAT        11.9090   15.8440   16.8410 O      14383 WAT       0.3803
  14384 WAT        11.9090   15.8440   17.0910 O      14384 WAT       0.5023
  14385 WAT        11.9090   15.8440   17.3410 O      14385 WAT       0.4739
  14386 WAT        11.9090   15.8440   17.5910 O      14386 WAT       0.3127
  14387 WAT        11.9090   15.8440   17.8410 O      14387 WAT       0.1424
  14388 WAT        11.9090   16.0940    6.3410 O      14388 WAT       0.0462
  14389 WAT        11.9090   16.0940    6.5910 O      14389 WAT       0.0547
  14390 WAT        11.9090   16.0940    6.8410 O      14390 WAT       0.0556
  14391 WAT        11.9090   16.0940    7.0910 O      14391 WAT       0.0451
  14392 WAT        11.9090   16.0940   16.3410 O      14392 WAT       0.0923
  14393 WAT        11.9090   16.0940   16.5910 O      14393 WAT       0.2162
  14394 WAT        11.9090   16.0940   16.8410 O      14394 WAT       0.3936
  14395 WAT        11.9090   16.0940   17.0910 O      14395 WAT       0.5237
  14396 WAT        11.9090   16.0940   17.3410 O      14396 WAT       0.4924
  14397 WAT        11.9090   16.0940   17.5910 O      14397 WAT       0.3214
  14398 WAT        11.9090   16.0940   17.8410 O      14398 WAT       0.1438
  14399 WAT        11.9090   16.3440    6.3410 O      14399 WAT       0.0490
  14400 WAT        11.9090   16.3440    6.5910 O      14400 WAT       0.0561
  14401 WAT        11.9090   16.3440    6.8410 O      14401 WAT       0.0547
  14402 WAT        11.9090   16.3440   16.3410 O      14402 WAT       0.0585
  14403 WAT        11.9090   16.3440   16.5910 O      14403 WAT       0.1453
  14404 WAT        11.9090   16.3440   16.8410 O      14404 WAT       0.2713
  14405 WAT        11.9090   16.3440   17.0910 O      14405 WAT       0.3637
  14406 WAT        11.9090   16.3440   17.3410 O      14406 WAT       0.3415
  14407 WAT        11.9090   16.3440   17.5910 O      14407 WAT       0.2211
  14408 WAT        11.9090   16.3440   17.8410 O      14408 WAT       0.0974
  14409 WAT        11.9090   16.5940    6.3410 O      14409 WAT       0.0488
  14410 WAT        11.9090   16.5940    6.5910 O      14410 WAT       0.0529
  14411 WAT        11.9090   16.5940    6.8410 O      14411 WAT       0.0492
  14412 WAT        11.9090   16.5940   16.5910 O      14412 WAT       0.0635
  14413 WAT        11.9090   16.5940   16.8410 O      14413 WAT       0.1222
  14414 WAT        11.9090   16.5940   17.0910 O      14414 WAT       0.1653
  14415 WAT        11.9090   16.5940   17.3410 O      14415 WAT       0.1550
  14416 WAT        11.9090   16.5940   17.5910 O      14416 WAT       0.0994
  14417 WAT        11.9090   16.8440    6.5910 O      14417 WAT       0.0450
  14418 WAT        11.9090   16.8440   17.0910 O      14418 WAT       0.0479
  14419 WAT        11.9090   19.0940    4.0910 O      14419 WAT       0.0467
  14420 WAT        11.9090   19.0940    4.3410 O      14420 WAT       0.0497
  14421 WAT        11.9090   19.0940    4.5910 O      14421 WAT       0.0487
  14422 WAT        11.9090   19.3440    3.5910 O      14422 WAT       0.0483
  14423 WAT        11.9090   19.3440    3.8410 O      14423 WAT       0.0582
  14424 WAT        11.9090   19.3440    4.0910 O      14424 WAT       0.0666
  14425 WAT        11.9090   19.3440    4.3410 O      14425 WAT       0.0708
  14426 WAT        11.9090   19.3440    4.5910 O      14426 WAT       0.0676
  14427 WAT        11.9090   19.3440    4.8410 O      14427 WAT       0.0551
  14428 WAT        11.9090   19.5940    3.5910 O      14428 WAT       0.0565
  14429 WAT        11.9090   19.5940    3.8410 O      14429 WAT       0.0692
  14430 WAT        11.9090   19.5940    4.0910 O      14430 WAT       0.0806
  14431 WAT        11.9090   19.5940    4.3410 O      14431 WAT       0.0867
  14432 WAT        11.9090   19.5940    4.5910 O      14432 WAT       0.0819
  14433 WAT        11.9090   19.5940    4.8410 O      14433 WAT       0.0633
  14434 WAT        11.9090   19.8440    3.5910 O      14434 WAT       0.0545
  14435 WAT        11.9090   19.8440    3.8410 O      14435 WAT       0.0683
  14436 WAT        11.9090   19.8440    4.0910 O      14436 WAT       0.0820
  14437 WAT        11.9090   19.8440    4.3410 O      14437 WAT       0.0903
  14438 WAT        11.9090   19.8440    4.5910 O      14438 WAT       0.0850
  14439 WAT        11.9090   19.8440    4.8410 O      14439 WAT       0.0631
  14440 WAT        11.9090   20.0940    3.8410 O      14440 WAT       0.0567
  14441 WAT        11.9090   20.0940    4.0910 O      14441 WAT       0.0712
  14442 WAT        11.9090   20.0940    4.3410 O      14442 WAT       0.0806
  14443 WAT        11.9090   20.0940    4.5910 O      14443 WAT       0.0756
  14444 WAT        11.9090   20.0940    4.8410 O      14444 WAT       0.0538
  14445 WAT        11.9090   20.3440    4.0910 O      14445 WAT       0.0535
  14446 WAT        11.9090   20.3440    4.3410 O      14446 WAT       0.0621
  14447 WAT        11.9090   20.3440    4.5910 O      14447 WAT       0.0574
  14448 WAT        11.9090   22.8440    4.8410 O      14448 WAT       0.0460
  14449 WAT        11.9090   22.8440    5.0910 O      14449 WAT       0.0494
  14450 WAT        11.9090   23.0940    4.8410 O      14450 WAT       0.0508
  14451 WAT        11.9090   23.0940    5.0910 O      14451 WAT       0.0662
  14452 WAT        11.9090   23.0940    5.3410 O      14452 WAT       0.0605
  14453 WAT        11.9090   23.3440    4.8410 O      14453 WAT       0.0501
  14454 WAT        11.9090   23.3440    5.0910 O      14454 WAT       0.0771
  14455 WAT        11.9090   23.3440    5.3410 O      14455 WAT       0.0813
  14456 WAT        11.9090   23.3440    5.5910 O      14456 WAT       0.0580
  14457 WAT        11.9090   23.5940    5.0910 O      14457 WAT       0.0787
  14458 WAT        11.9090   23.5940    5.3410 O      14458 WAT       0.0928
  14459 WAT        11.9090   23.5940    5.5910 O      14459 WAT       0.0731
  14460 WAT        11.9090   23.8440    5.0910 O      14460 WAT       0.0702
  14461 WAT        11.9090   23.8440    5.3410 O      14461 WAT       0.0897
  14462 WAT        11.9090   23.8440    5.5910 O      14462 WAT       0.0759
  14463 WAT        11.9090   24.0940    5.0910 O      14463 WAT       0.0526
  14464 WAT        11.9090   24.0940    5.3410 O      14464 WAT       0.0709
  14465 WAT        11.9090   24.0940    5.5910 O      14465 WAT       0.0629
  14466 WAT        12.1590    8.8440   13.5910 O      14466 WAT       0.0468
  14467 WAT        12.1590    8.8440   13.8410 O      14467 WAT       0.0479
  14468 WAT        12.1590    8.8440   14.0910 O      14468 WAT       0.0470
  14469 WAT        12.1590    9.0940   13.3410 O      14469 WAT       0.0458
  14470 WAT        12.1590    9.0940   13.5910 O      14470 WAT       0.0487
  14471 WAT        12.1590    9.0940   13.8410 O      14471 WAT       0.0510
  14472 WAT        12.1590    9.0940   14.0910 O      14472 WAT       0.0521
  14473 WAT        12.1590    9.0940   14.3410 O      14473 WAT       0.0509
  14474 WAT        12.1590    9.0940   14.5910 O      14474 WAT       0.0456
  14475 WAT        12.1590    9.3440   13.8410 O      14475 WAT       0.0475
  14476 WAT        12.1590    9.3440   14.0910 O      14476 WAT       0.0498
  14477 WAT        12.1590    9.3440   14.3410 O      14477 WAT       0.0506
  14478 WAT        12.1590    9.3440   14.5910 O      14478 WAT       0.0479
  14479 WAT        12.1590   12.5940    8.8410 O      14479 WAT       0.0474
  14480 WAT        12.1590   12.8440    8.5910 O      14480 WAT       0.0461
  14481 WAT        12.1590   12.8440    8.8410 O      14481 WAT       0.0487
  14482 WAT        12.1590   12.8440    9.0910 O      14482 WAT       0.0451
  14483 WAT        12.1590   13.0940    8.5910 O      14483 WAT       0.0464
  14484 WAT        12.1590   13.0940    8.8410 O      14484 WAT       0.0479
  14485 WAT        12.1590   13.3440    8.8410 O      14485 WAT       0.0454
  14486 WAT        12.1590   15.3440    6.8410 O      14486 WAT       0.0466
  14487 WAT        12.1590   15.3440   16.8410 O      14487 WAT       0.0810
  14488 WAT        12.1590   15.3440   17.0910 O      14488 WAT       0.1124
  14489 WAT        12.1590   15.3440   17.3410 O      14489 WAT       0.1127
  14490 WAT        12.1590   15.3440   17.5910 O      14490 WAT       0.0793
  14491 WAT        12.1590   15.5940    6.5910 O      14491 WAT       0.0493
  14492 WAT        12.1590   15.5940    6.8410 O      14492 WAT       0.0522
  14493 WAT        12.1590   15.5940    7.0910 O      14493 WAT       0.0457
  14494 WAT        12.1590   15.5940   16.5910 O      14494 WAT       0.1000
  14495 WAT        12.1590   15.5940   16.8410 O      14495 WAT       0.1849
  14496 WAT        12.1590   15.5940   17.0910 O      14496 WAT       0.2556
  14497 WAT        12.1590   15.5940   17.3410 O      14497 WAT       0.2531
  14498 WAT        12.1590   15.5940   17.5910 O      14498 WAT       0.1751
  14499 WAT        12.1590   15.5940   17.8410 O      14499 WAT       0.0830
  14500 WAT        12.1590   15.8440    6.3410 O      14500 WAT       0.0453
  14501 WAT        12.1590   15.8440    6.5910 O      14501 WAT       0.0543
  14502 WAT        12.1590   15.8440    6.8410 O      14502 WAT       0.0562
  14503 WAT        12.1590   15.8440    7.0910 O      14503 WAT       0.0470
  14504 WAT        12.1590   15.8440   16.3410 O      14504 WAT       0.0654
  14505 WAT        12.1590   15.8440   16.5910 O      14505 WAT       0.1567
  14506 WAT        12.1590   15.8440   16.8410 O      14506 WAT       0.2957
  14507 WAT        12.1590   15.8440   17.0910 O      14507 WAT       0.4109
  14508 WAT        12.1590   15.8440   17.3410 O      14508 WAT       0.4049
  14509 WAT        12.1590   15.8440   17.5910 O      14509 WAT       0.2768
  14510 WAT        12.1590   15.8440   17.8410 O      14510 WAT       0.1294
  14511 WAT        12.1590   16.0940    6.3410 O      14511 WAT       0.0494
  14512 WAT        12.1590   16.0940    6.5910 O      14512 WAT       0.0576
  14513 WAT        12.1590   16.0940    6.8410 O      14513 WAT       0.0573
  14514 WAT        12.1590   16.0940    7.0910 O      14514 WAT       0.0454
  14515 WAT        12.1590   16.0940   16.3410 O      14515 WAT       0.0653
  14516 WAT        12.1590   16.0940   16.5910 O      14516 WAT       0.1646
  14517 WAT        12.1590   16.0940   16.8410 O      14517 WAT       0.3174
  14518 WAT        12.1590   16.0940   17.0910 O      14518 WAT       0.4436
  14519 WAT        12.1590   16.0940   17.3410 O      14519 WAT       0.4355
  14520 WAT        12.1590   16.0940   17.5910 O      14520 WAT       0.2952
  14521 WAT        12.1590   16.0940   17.8410 O      14521 WAT       0.1362
  14522 WAT        12.1590   16.3440    6.3410 O      14522 WAT       0.0514
  14523 WAT        12.1590   16.3440    6.5910 O      14523 WAT       0.0573
  14524 WAT        12.1590   16.3440    6.8410 O      14524 WAT       0.0542
  14525 WAT        12.1590   16.3440   16.5910 O      14525 WAT       0.1135
  14526 WAT        12.1590   16.3440   16.8410 O      14526 WAT       0.2237
  14527 WAT        12.1590   16.3440   17.0910 O      14527 WAT       0.3143
  14528 WAT        12.1590   16.3440   17.3410 O      14528 WAT       0.3075
  14529 WAT        12.1590   16.3440   17.5910 O      14529 WAT       0.2065
  14530 WAT        12.1590   16.3440   17.8410 O      14530 WAT       0.0939
  14531 WAT        12.1590   16.5940    6.3410 O      14531 WAT       0.0495
  14532 WAT        12.1590   16.5940    6.5910 O      14532 WAT       0.0516
  14533 WAT        12.1590   16.5940    6.8410 O      14533 WAT       0.0460
  14534 WAT        12.1590   16.5940   16.5910 O      14534 WAT       0.0502
  14535 WAT        12.1590   16.5940   16.8410 O      14535 WAT       0.1021
  14536 WAT        12.1590   16.5940   17.0910 O      14536 WAT       0.1444
  14537 WAT        12.1590   16.5940   17.3410 O      14537 WAT       0.1407
  14538 WAT        12.1590   16.5940   17.5910 O      14538 WAT       0.0934
  14539 WAT        12.1590   17.3440    5.3410 O      14539 WAT       0.0462
  14540 WAT        12.1590   17.3440    5.5910 O      14540 WAT       0.0461
  14541 WAT        12.1590   17.5940    5.0910 O      14541 WAT       0.0454
  14542 WAT        12.1590   17.5940    5.3410 O      14542 WAT       0.0471
  14543 WAT        12.1590   19.0940    3.8410 O      14543 WAT       0.0487
  14544 WAT        12.1590   19.0940    4.0910 O      14544 WAT       0.0535
  14545 WAT        12.1590   19.0940    4.3410 O      14545 WAT       0.0537
  14546 WAT        12.1590   19.0940    4.5910 O      14546 WAT       0.0483
  14547 WAT        12.1590   19.3440    3.5910 O      14547 WAT       0.0554
  14548 WAT        12.1590   19.3440    3.8410 O      14548 WAT       0.0657
  14549 WAT        12.1590   19.3440    4.0910 O      14549 WAT       0.0723
  14550 WAT        12.1590   19.3440    4.3410 O      14550 WAT       0.0721
  14551 WAT        12.1590   19.3440    4.5910 O      14551 WAT       0.0630
  14552 WAT        12.1590   19.3440    4.8410 O      14552 WAT       0.0465
  14553 WAT        12.1590   19.5940    3.3410 O      14553 WAT       0.0485
  14554 WAT        12.1590   19.5940    3.5910 O      14554 WAT       0.0608
  14555 WAT        12.1590   19.5940    3.8410 O      14555 WAT       0.0728
  14556 WAT        12.1590   19.5940    4.0910 O      14556 WAT       0.0812
  14557 WAT        12.1590   19.5940    4.3410 O      14557 WAT       0.0817
  14558 WAT        12.1590   19.5940    4.5910 O      14558 WAT       0.0711
  14559 WAT        12.1590   19.5940    4.8410 O      14559 WAT       0.0505
  14560 WAT        12.1590   19.8440    3.5910 O      14560 WAT       0.0543
  14561 WAT        12.1590   19.8440    3.8410 O      14561 WAT       0.0663
  14562 WAT        12.1590   19.8440    4.0910 O      14562 WAT       0.0760
  14563 WAT        12.1590   19.8440    4.3410 O      14563 WAT       0.0785
  14564 WAT        12.1590   19.8440    4.5910 O      14564 WAT       0.0687
  14565 WAT        12.1590   19.8440    4.8410 O      14565 WAT       0.0474
  14566 WAT        12.1590   20.0940    3.8410 O      14566 WAT       0.0513
  14567 WAT        12.1590   20.0940    4.0910 O      14567 WAT       0.0615
  14568 WAT        12.1590   20.0940    4.3410 O      14568 WAT       0.0657
  14569 WAT        12.1590   20.0940    4.5910 O      14569 WAT       0.0576
  14570 WAT        12.1590   20.3440    4.3410 O      14570 WAT       0.0486
  14571 WAT        12.1590   21.5940    2.5910 O      14571 WAT       0.0452
  14572 WAT        12.1590   21.5940    2.8410 O      14572 WAT       0.0479
  14573 WAT        12.1590   21.5940    3.0910 O      14573 WAT       0.0457
  14574 WAT        12.1590   21.5940    3.8410 O      14574 WAT       0.0455
  14575 WAT        12.1590   21.5940    4.0910 O      14575 WAT       0.0453
  14576 WAT        12.1590   21.8440    3.8410 O      14576 WAT       0.0517
  14577 WAT        12.1590   21.8440    4.0910 O      14577 WAT       0.0587
  14578 WAT        12.1590   21.8440    4.3410 O      14578 WAT       0.0543
  14579 WAT        12.1590   22.0940    4.0910 O      14579 WAT       0.0571
  14580 WAT        12.1590   22.0940    4.3410 O      14580 WAT       0.0625
  14581 WAT        12.1590   22.0940    4.5910 O      14581 WAT       0.0539
  14582 WAT        12.1590   22.3440    4.3410 O      14582 WAT       0.0566
  14583 WAT        12.1590   22.3440    4.5910 O      14583 WAT       0.0610
  14584 WAT        12.1590   22.3440    4.8410 O      14584 WAT       0.0515
  14585 WAT        12.1590   22.5940    4.5910 O      14585 WAT       0.0584
  14586 WAT        12.1590   22.5940    4.8410 O      14586 WAT       0.0641
  14587 WAT        12.1590   22.5940    5.0910 O      14587 WAT       0.0534
  14588 WAT        12.1590   22.8440    4.5910 O      14588 WAT       0.0494
  14589 WAT        12.1590   22.8440    4.8410 O      14589 WAT       0.0701
  14590 WAT        12.1590   22.8440    5.0910 O      14590 WAT       0.0736
  14591 WAT        12.1590   22.8440    5.3410 O      14591 WAT       0.0555
  14592 WAT        12.1590   23.0940    4.8410 O      14592 WAT       0.0679
  14593 WAT        12.1590   23.0940    5.0910 O      14593 WAT       0.0874
  14594 WAT        12.1590   23.0940    5.3410 O      14594 WAT       0.0791
  14595 WAT        12.1590   23.0940    5.5910 O      14595 WAT       0.0493
  14596 WAT        12.1590   23.3440    4.8410 O      14596 WAT       0.0585
  14597 WAT        12.1590   23.3440    5.0910 O      14597 WAT       0.0901
  14598 WAT        12.1590   23.3440    5.3410 O      14598 WAT       0.0953
  14599 WAT        12.1590   23.3440    5.5910 O      14599 WAT       0.0682
  14600 WAT        12.1590   23.5940    4.8410 O      14600 WAT       0.0458
  14601 WAT        12.1590   23.5940    5.0910 O      14601 WAT       0.0818
  14602 WAT        12.1590   23.5940    5.3410 O      14602 WAT       0.0982
  14603 WAT        12.1590   23.5940    5.5910 O      14603 WAT       0.0786
  14604 WAT        12.1590   23.8440    5.0910 O      14604 WAT       0.0658
  14605 WAT        12.1590   23.8440    5.3410 O      14605 WAT       0.0869
  14606 WAT        12.1590   23.8440    5.5910 O      14606 WAT       0.0755
  14607 WAT        12.1590   24.0940    5.0910 O      14607 WAT       0.0455
  14608 WAT        12.1590   24.0940    5.3410 O      14608 WAT       0.0639
  14609 WAT        12.1590   24.0940    5.5910 O      14609 WAT       0.0587
  14610 WAT        12.4090    9.3440   12.5910 O      14610 WAT       0.0457
  14611 WAT        12.4090   12.3440    8.8410 O      14611 WAT       0.0463
  14612 WAT        12.4090   12.5940    8.5910 O      14612 WAT       0.0476
  14613 WAT        12.4090   12.5940    8.8410 O      14613 WAT       0.0490
  14614 WAT        12.4090   12.8440    8.5910 O      14614 WAT       0.0481
  14615 WAT        12.4090   12.8440    8.8410 O      14615 WAT       0.0488
  14616 WAT        12.4090   13.0940    8.5910 O      14616 WAT       0.0463
  14617 WAT        12.4090   13.0940    8.8410 O      14617 WAT       0.0464
  14618 WAT        12.4090   15.3440    6.5910 O      14618 WAT       0.0459
  14619 WAT        12.4090   15.3440    6.8410 O      14619 WAT       0.0471
  14620 WAT        12.4090   15.3440   17.0910 O      14620 WAT       0.0502
  14621 WAT        12.4090   15.3440   17.3410 O      14621 WAT       0.0521
  14622 WAT        12.4090   15.5940    6.5910 O      14622 WAT       0.0522
  14623 WAT        12.4090   15.5940    6.8410 O      14623 WAT       0.0531
  14624 WAT        12.4090   15.5940    7.0910 O      14624 WAT       0.0451
  14625 WAT        12.4090   15.5940   16.8410 O      14625 WAT       0.0869
  14626 WAT        12.4090   15.5940   17.0910 O      14626 WAT       0.1268
  14627 WAT        12.4090   15.5940   17.3410 O      14627 WAT       0.1309
  14628 WAT        12.4090   15.5940   17.5910 O      14628 WAT       0.0933
  14629 WAT        12.4090   15.8440    6.3410 O      14629 WAT       0.0489
  14630 WAT        12.4090   15.8440    6.5910 O      14630 WAT       0.0567
  14631 WAT        12.4090   15.8440    6.8410 O      14631 WAT       0.0565
  14632 WAT        12.4090   15.8440    7.0910 O      14632 WAT       0.0458
  14633 WAT        12.4090   15.8440   16.5910 O      14633 WAT       0.0726
  14634 WAT        12.4090   15.8440   16.8410 O      14634 WAT       0.1461
  14635 WAT        12.4090   15.8440   17.0910 O      14635 WAT       0.2137
  14636 WAT        12.4090   15.8440   17.3410 O      14636 WAT       0.2199
  14637 WAT        12.4090   15.8440   17.5910 O      14637 WAT       0.1559
  14638 WAT        12.4090   15.8440   17.8410 O      14638 WAT       0.0747
  14639 WAT        12.4090   16.0940    6.3410 O      14639 WAT       0.0518
  14640 WAT        12.4090   16.0940    6.5910 O      14640 WAT       0.0584
  14641 WAT        12.4090   16.0940    6.8410 O      14641 WAT       0.0559
  14642 WAT        12.4090   16.0940   16.5910 O      14642 WAT       0.0787
  14643 WAT        12.4090   16.0940   16.8410 O      14643 WAT       0.1614
  14644 WAT        12.4090   16.0940   17.0910 O      14644 WAT       0.2369
  14645 WAT        12.4090   16.0940   17.3410 O      14645 WAT       0.2428
  14646 WAT        12.4090   16.0940   17.5910 O      14646 WAT       0.1708
  14647 WAT        12.4090   16.0940   17.8410 O      14647 WAT       0.0810
  14648 WAT        12.4090   16.3440    6.3410 O      14648 WAT       0.0519
  14649 WAT        12.4090   16.3440    6.5910 O      14649 WAT       0.0555
  14650 WAT        12.4090   16.3440    6.8410 O      14650 WAT       0.0503
  14651 WAT        12.4090   16.3440   16.5910 O      14651 WAT       0.0551
  14652 WAT        12.4090   16.3440   16.8410 O      14652 WAT       0.1157
  14653 WAT        12.4090   16.3440   17.0910 O      14653 WAT       0.1704
  14654 WAT        12.4090   16.3440   17.3410 O      14654 WAT       0.1738
  14655 WAT        12.4090   16.3440   17.5910 O      14655 WAT       0.1209
  14656 WAT        12.4090   16.3440   17.8410 O      14656 WAT       0.0564
  14657 WAT        12.4090   16.5940    6.3410 O      14657 WAT       0.0477
  14658 WAT        12.4090   16.5940    6.5910 O      14658 WAT       0.0472
  14659 WAT        12.4090   16.5940   16.8410 O      14659 WAT       0.0529
  14660 WAT        12.4090   16.5940   17.0910 O      14660 WAT       0.0786
  14661 WAT        12.4090   16.5940   17.3410 O      14661 WAT       0.0797
  14662 WAT        12.4090   16.5940   17.5910 O      14662 WAT       0.0545
  14663 WAT        12.4090   17.3440    5.0910 O      14663 WAT       0.0455
  14664 WAT        12.4090   17.3440    5.3410 O      14664 WAT       0.0477
  14665 WAT        12.4090   17.3440    5.5910 O      14665 WAT       0.0457
  14666 WAT        12.4090   17.5940    5.0910 O      14666 WAT       0.0471
  14667 WAT        12.4090   17.5940    5.3410 O      14667 WAT       0.0473
  14668 WAT        12.4090   19.0940    3.5910 O      14668 WAT       0.0468
  14669 WAT        12.4090   19.0940    3.8410 O      14669 WAT       0.0536
  14670 WAT        12.4090   19.0940    4.0910 O      14670 WAT       0.0557
  14671 WAT        12.4090   19.0940    4.3410 O      14671 WAT       0.0515
  14672 WAT        12.4090   19.3440    3.3410 O      14672 WAT       0.0486
  14673 WAT        12.4090   19.3440    3.5910 O      14673 WAT       0.0598
  14674 WAT        12.4090   19.3440    3.8410 O      14674 WAT       0.0685
  14675 WAT        12.4090   19.3440    4.0910 O      14675 WAT       0.0710
  14676 WAT        12.4090   19.3440    4.3410 O      14676 WAT       0.0648
  14677 WAT        12.4090   19.3440    4.5910 O      14677 WAT       0.0505
  14678 WAT        12.4090   19.5940    3.3410 O      14678 WAT       0.0506
  14679 WAT        12.4090   19.5940    3.5910 O      14679 WAT       0.0617
  14680 WAT        12.4090   19.5940    3.8410 O      14680 WAT       0.0708
  14681 WAT        12.4090   19.5940    4.0910 O      14681 WAT       0.0741
  14682 WAT        12.4090   19.5940    4.3410 O      14682 WAT       0.0683
  14683 WAT        12.4090   19.5940    4.5910 O      14683 WAT       0.0532
  14684 WAT        12.4090   19.8440    3.5910 O      14684 WAT       0.0517
  14685 WAT        12.4090   19.8440    3.8410 O      14685 WAT       0.0599
  14686 WAT        12.4090   19.8440    4.0910 O      14686 WAT       0.0644
  14687 WAT        12.4090   19.8440    4.3410 O      14687 WAT       0.0609
  14688 WAT        12.4090   19.8440    4.5910 O      14688 WAT       0.0481
  14689 WAT        12.4090   20.0940    4.0910 O      14689 WAT       0.0490
  14690 WAT        12.4090   20.0940    4.3410 O      14690 WAT       0.0481
  14691 WAT        12.4090   21.3440    2.5910 O      14691 WAT       0.0563
  14692 WAT        12.4090   21.3440    2.8410 O      14692 WAT       0.0573
  14693 WAT        12.4090   21.3440    3.0910 O      14693 WAT       0.0502
  14694 WAT        12.4090   21.5940    2.5910 O      14694 WAT       0.0643
  14695 WAT        12.4090   21.5940    2.8410 O      14695 WAT       0.0648
  14696 WAT        12.4090   21.5940    3.0910 O      14696 WAT       0.0580
  14697 WAT        12.4090   21.5940    3.3410 O      14697 WAT       0.0518
  14698 WAT        12.4090   21.5940    3.5910 O      14698 WAT       0.0525
  14699 WAT        12.4090   21.5940    3.8410 O      14699 WAT       0.0591
  14700 WAT        12.4090   21.5940    4.0910 O      14700 WAT       0.0627
  14701 WAT        12.4090   21.5940    4.3410 O      14701 WAT       0.0546
  14702 WAT        12.4090   21.8440    2.5910 O      14702 WAT       0.0478
  14703 WAT        12.4090   21.8440    2.8410 O      14703 WAT       0.0478
  14704 WAT        12.4090   21.8440    3.5910 O      14704 WAT       0.0550
  14705 WAT        12.4090   21.8440    3.8410 O      14705 WAT       0.0742
  14706 WAT        12.4090   21.8440    4.0910 O      14706 WAT       0.0904
  14707 WAT        12.4090   21.8440    4.3410 O      14707 WAT       0.0890
  14708 WAT        12.4090   21.8440    4.5910 O      14708 WAT       0.0674
  14709 WAT        12.4090   22.0940    3.8410 O      14709 WAT       0.0671
  14710 WAT        12.4090   22.0940    4.0910 O      14710 WAT       0.0956
  14711 WAT        12.4090   22.0940    4.3410 O      14711 WAT       0.1092
  14712 WAT        12.4090   22.0940    4.5910 O      14712 WAT       0.0967
  14713 WAT        12.4090   22.0940    4.8410 O      14713 WAT       0.0649
  14714 WAT        12.4090   22.3440    4.0910 O      14714 WAT       0.0734
  14715 WAT        12.4090   22.3440    4.3410 O      14715 WAT       0.1001
  14716 WAT        12.4090   22.3440    4.5910 O      14716 WAT       0.1068
  14717 WAT        12.4090   22.3440    4.8410 O      14717 WAT       0.0877
  14718 WAT        12.4090   22.3440    5.0910 O      14718 WAT       0.0546
  14719 WAT        12.4090   22.5940    4.3410 O      14719 WAT       0.0702
  14720 WAT        12.4090   22.5940    4.5910 O      14720 WAT       0.0938
  14721 WAT        12.4090   22.5940    4.8410 O      14721 WAT       0.0974
  14722 WAT        12.4090   22.5940    5.0910 O      14722 WAT       0.0770
  14723 WAT        12.4090   22.5940    5.3410 O      14723 WAT       0.0450
  14724 WAT        12.4090   22.8440    4.5910 O      14724 WAT       0.0691
  14725 WAT        12.4090   22.8440    4.8410 O      14725 WAT       0.0924
  14726 WAT        12.4090   22.8440    5.0910 O      14726 WAT       0.0924
  14727 WAT        12.4090   22.8440    5.3410 O      14727 WAT       0.0671
  14728 WAT        12.4090   23.0940    4.8410 O      14728 WAT       0.0766
  14729 WAT        12.4090   23.0940    5.0910 O      14729 WAT       0.0954
  14730 WAT        12.4090   23.0940    5.3410 O      14730 WAT       0.0844
  14731 WAT        12.4090   23.0940    5.5910 O      14731 WAT       0.0519
  14732 WAT        12.4090   23.3440    4.8410 O      14732 WAT       0.0564
  14733 WAT        12.4090   23.3440    5.0910 O      14733 WAT       0.0856
  14734 WAT        12.4090   23.3440    5.3410 O      14734 WAT       0.0899
  14735 WAT        12.4090   23.3440    5.5910 O      14735 WAT       0.0645
  14736 WAT        12.4090   23.5940    5.0910 O      14736 WAT       0.0676
  14737 WAT        12.4090   23.5940    5.3410 O      14737 WAT       0.0823
  14738 WAT        12.4090   23.5940    5.5910 O      14738 WAT       0.0671
  14739 WAT        12.4090   23.8440    5.0910 O      14739 WAT       0.0479
  14740 WAT        12.4090   23.8440    5.3410 O      14740 WAT       0.0653
  14741 WAT        12.4090   23.8440    5.5910 O      14741 WAT       0.0589
  14742 WAT        12.6590    9.0940   12.3410 O      14742 WAT       0.0467
  14743 WAT        12.6590    9.0940   12.5910 O      14743 WAT       0.0498
  14744 WAT        12.6590    9.0940   12.8410 O      14744 WAT       0.0463
  14745 WAT        12.6590    9.3440   12.0910 O      14745 WAT       0.0500
  14746 WAT        12.6590    9.3440   12.3410 O      14746 WAT       0.0582
  14747 WAT        12.6590    9.3440   12.5910 O      14747 WAT       0.0593
  14748 WAT        12.6590    9.3440   12.8410 O      14748 WAT       0.0529
  14749 WAT        12.6590    9.5940   11.8410 O      14749 WAT       0.0463
  14750 WAT        12.6590    9.5940   12.0910 O      14750 WAT       0.0573
  14751 WAT        12.6590    9.5940   12.3410 O      14751 WAT       0.0623
  14752 WAT        12.6590    9.5940   12.5910 O      14752 WAT       0.0594
  14753 WAT        12.6590    9.5940   12.8410 O      14753 WAT       0.0498
  14754 WAT        12.6590    9.8440   11.8410 O      14754 WAT       0.0460
  14755 WAT        12.6590    9.8440   12.0910 O      14755 WAT       0.0526
  14756 WAT        12.6590    9.8440   12.3410 O      14756 WAT       0.0528
  14757 WAT        12.6590    9.8440   12.5910 O      14757 WAT       0.0463
  14758 WAT        12.6590   12.3440    8.5910 O      14758 WAT       0.0473
  14759 WAT        12.6590   12.3440    8.8410 O      14759 WAT       0.0471
  14760 WAT        12.6590   12.5940    8.5910 O      14760 WAT       0.0495
  14761 WAT        12.6590   12.5940    8.8410 O      14761 WAT       0.0483
  14762 WAT        12.6590   12.8440    8.5910 O      14762 WAT       0.0483
  14763 WAT        12.6590   12.8440    8.8410 O      14763 WAT       0.0467
  14764 WAT        12.6590   15.3440    6.5910 O      14764 WAT       0.0456
  14765 WAT        12.6590   15.5940    6.3410 O      14765 WAT       0.0474
  14766 WAT        12.6590   15.5940    6.5910 O      14766 WAT       0.0528
  14767 WAT        12.6590   15.5940    6.8410 O      14767 WAT       0.0510
  14768 WAT        12.6590   15.8440    6.3410 O      14768 WAT       0.0514
  14769 WAT        12.6590   15.8440    6.5910 O      14769 WAT       0.0569
  14770 WAT        12.6590   15.8440    6.8410 O      14770 WAT       0.0537
  14771 WAT        12.6590   15.8440   17.0910 O      14771 WAT       0.0693
  14772 WAT        12.6590   15.8440   17.3410 O      14772 WAT       0.0745
  14773 WAT        12.6590   15.8440   17.5910 O      14773 WAT       0.0545
  14774 WAT        12.6590   16.0940    6.3410 O      14774 WAT       0.0524
  14775 WAT        12.6590   16.0940    6.5910 O      14775 WAT       0.0563
  14776 WAT        12.6590   16.0940    6.8410 O      14776 WAT       0.0512
  14777 WAT        12.6590   16.0940   16.8410 O      14777 WAT       0.0505
  14778 WAT        12.6590   16.0940   17.0910 O      14778 WAT       0.0785
  14779 WAT        12.6590   16.0940   17.3410 O      14779 WAT       0.0841
  14780 WAT        12.6590   16.0940   17.5910 O      14780 WAT       0.0611
  14781 WAT        12.6590   16.3440    6.3410 O      14781 WAT       0.0497
  14782 WAT        12.6590   16.3440    6.5910 O      14782 WAT       0.0505
  14783 WAT        12.6590   16.3440   17.0910 O      14783 WAT       0.0569
  14784 WAT        12.6590   16.3440   17.3410 O      14784 WAT       0.0606
  14785 WAT        12.6590   17.3440    5.0910 O      14785 WAT       0.0468
  14786 WAT        12.6590   17.3440    5.3410 O      14786 WAT       0.0474
  14787 WAT        12.6590   17.5940    5.0910 O      14787 WAT       0.0474
  14788 WAT        12.6590   17.5940    5.3410 O      14788 WAT       0.0456
  14789 WAT        12.6590   19.0940    3.5910 O      14789 WAT       0.0494
  14790 WAT        12.6590   19.0940    3.8410 O      14790 WAT       0.0543
  14791 WAT        12.6590   19.0940    4.0910 O      14791 WAT       0.0529
  14792 WAT        12.6590   19.3440    3.3410 O      14792 WAT       0.0503
  14793 WAT        12.6590   19.3440    3.5910 O      14793 WAT       0.0602
  14794 WAT        12.6590   19.3440    3.8410 O      14794 WAT       0.0658
  14795 WAT        12.6590   19.3440    4.0910 O      14795 WAT       0.0634
  14796 WAT        12.6590   19.3440    4.3410 O      14796 WAT       0.0522
  14797 WAT        12.6590   19.5940    3.3410 O      14797 WAT       0.0503
  14798 WAT        12.6590   19.5940    3.5910 O      14798 WAT       0.0591
  14799 WAT        12.6590   19.5940    3.8410 O      14799 WAT       0.0641
  14800 WAT        12.6590   19.5940    4.0910 O      14800 WAT       0.0621
  14801 WAT        12.6590   19.5940    4.3410 O      14801 WAT       0.0513
  14802 WAT        12.6590   19.8440    3.5910 O      14802 WAT       0.0471
  14803 WAT        12.6590   19.8440    3.8410 O      14803 WAT       0.0512
  14804 WAT        12.6590   19.8440    4.0910 O      14804 WAT       0.0505
  14805 WAT        12.6590   21.3440    2.5910 O      14805 WAT       0.0646
  14806 WAT        12.6590   21.3440    2.8410 O      14806 WAT       0.0623
  14807 WAT        12.6590   21.3440    3.0910 O      14807 WAT       0.0518
  14808 WAT        12.6590   21.5940    2.5910 O      14808 WAT       0.0774
  14809 WAT        12.6590   21.5940    2.8410 O      14809 WAT       0.0741
  14810 WAT        12.6590   21.5940    3.0910 O      14810 WAT       0.0633
  14811 WAT        12.6590   21.5940    3.3410 O      14811 WAT       0.0572
  14812 WAT        12.6590   21.5940    3.5910 O      14812 WAT       0.0636
  14813 WAT        12.6590   21.5940    3.8410 O      14813 WAT       0.0792
  14814 WAT        12.6590   21.5940    4.0910 O      14814 WAT       0.0897
  14815 WAT        12.6590   21.5940    4.3410 O      14815 WAT       0.0812
  14816 WAT        12.6590   21.5940    4.5910 O      14816 WAT       0.0556
  14817 WAT        12.6590   21.8440    2.5910 O      14817 WAT       0.0609
  14818 WAT        12.6590   21.8440    2.8410 O      14818 WAT       0.0579
  14819 WAT        12.6590   21.8440    3.0910 O      14819 WAT       0.0519
  14820 WAT        12.6590   21.8440    3.3410 O      14820 WAT       0.0546
  14821 WAT        12.6590   21.8440    3.5910 O      14821 WAT       0.0749
  14822 WAT        12.6590   21.8440    3.8410 O      14822 WAT       0.1098
  14823 WAT        12.6590   21.8440    4.0910 O      14823 WAT       0.1396
  14824 WAT        12.6590   21.8440    4.3410 O      14824 WAT       0.1398
  14825 WAT        12.6590   21.8440    4.5910 O      14825 WAT       0.1058
  14826 WAT        12.6590   21.8440    4.8410 O      14826 WAT       0.0590
  14827 WAT        12.6590   22.0940    3.5910 O      14827 WAT       0.0621
  14828 WAT        12.6590   22.0940    3.8410 O      14828 WAT       0.1068
  14829 WAT        12.6590   22.0940    4.0910 O      14829 WAT       0.1538
  14830 WAT        12.6590   22.0940    4.3410 O      14830 WAT       0.1735
  14831 WAT        12.6590   22.0940    4.5910 O      14831 WAT       0.1491
  14832 WAT        12.6590   22.0940    4.8410 O      14832 WAT       0.0961
  14833 WAT        12.6590   22.0940    5.0910 O      14833 WAT       0.0459
  14834 WAT        12.6590   22.3440    3.8410 O      14834 WAT       0.0716
  14835 WAT        12.6590   22.3440    4.0910 O      14835 WAT       0.1185
  14836 WAT        12.6590   22.3440    4.3410 O      14836 WAT       0.1543
  14837 WAT        12.6590   22.3440    4.5910 O      14837 WAT       0.1553
  14838 WAT        12.6590   22.3440    4.8410 O      14838 WAT       0.1196
  14839 WAT        12.6590   22.3440    5.0910 O      14839 WAT       0.0699
  14840 WAT        12.6590   22.5940    4.0910 O      14840 WAT       0.0644
  14841 WAT        12.6590   22.5940    4.3410 O      14841 WAT       0.1004
  14842 WAT        12.6590   22.5940    4.5910 O      14842 WAT       0.1233
  14843 WAT        12.6590   22.5940    4.8410 O      14843 WAT       0.1181
  14844 WAT        12.6590   22.5940    5.0910 O      14844 WAT       0.0868
  14845 WAT        12.6590   22.5940    5.3410 O      14845 WAT       0.0477
  14846 WAT        12.6590   22.8440    4.3410 O      14846 WAT       0.0500
  14847 WAT        12.6590   22.8440    4.5910 O      14847 WAT       0.0786
  14848 WAT        12.6590   22.8440    4.8410 O      14848 WAT       0.0967
  14849 WAT        12.6590   22.8440    5.0910 O      14849 WAT       0.0905
  14850 WAT        12.6590   22.8440    5.3410 O      14850 WAT       0.0625
  14851 WAT        12.6590   23.0940    4.8410 O      14851 WAT       0.0682
  14852 WAT        12.6590   23.0940    5.0910 O      14852 WAT       0.0808
  14853 WAT        12.6590   23.0940    5.3410 O      14853 WAT       0.0691
  14854 WAT        12.6590   23.3440    5.0910 O      14854 WAT       0.0625
  14855 WAT        12.6590   23.3440    5.3410 O      14855 WAT       0.0649
  14856 WAT        12.6590   23.3440    5.5910 O      14856 WAT       0.0466
  14857 WAT        12.6590   23.5940    5.3410 O      14857 WAT       0.0523
  14858 WAT        12.9090    9.0940   12.0910 O      14858 WAT       0.0522
  14859 WAT        12.9090    9.0940   12.3410 O      14859 WAT       0.0613
  14860 WAT        12.9090    9.0940   12.5910 O      14860 WAT       0.0609
  14861 WAT        12.9090    9.0940   12.8410 O      14861 WAT       0.0509
  14862 WAT        12.9090    9.3440   11.8410 O      14862 WAT       0.0560
  14863 WAT        12.9090    9.3440   12.0910 O      14863 WAT       0.0729
  14864 WAT        12.9090    9.3440   12.3410 O      14864 WAT       0.0819
  14865 WAT        12.9090    9.3440   12.5910 O      14865 WAT       0.0782
  14866 WAT        12.9090    9.3440   12.8410 O      14866 WAT       0.0631
  14867 WAT        12.9090    9.5940   11.5910 O      14867 WAT       0.0495
  14868 WAT        12.9090    9.5940   11.8410 O      14868 WAT       0.0687
  14869 WAT        12.9090    9.5940   12.0910 O      14869 WAT       0.0841
  14870 WAT        12.9090    9.5940   12.3410 O      14870 WAT       0.0887
  14871 WAT        12.9090    9.5940   12.5910 O      14871 WAT       0.0797
  14872 WAT        12.9090    9.5940   12.8410 O      14872 WAT       0.0609
  14873 WAT        12.9090    9.8440   11.5910 O      14873 WAT       0.0510
  14874 WAT        12.9090    9.8440   11.8410 O      14874 WAT       0.0659
  14875 WAT        12.9090    9.8440   12.0910 O      14875 WAT       0.0747
  14876 WAT        12.9090    9.8440   12.3410 O      14876 WAT       0.0727
  14877 WAT        12.9090    9.8440   12.5910 O      14877 WAT       0.0604
  14878 WAT        12.9090   10.0940   11.8410 O      14878 WAT       0.0470
  14879 WAT        12.9090   10.0940   12.0910 O      14879 WAT       0.0487
  14880 WAT        12.9090   12.3440    8.5910 O      14880 WAT       0.0481
  14881 WAT        12.9090   12.3440    8.8410 O      14881 WAT       0.0451
  14882 WAT        12.9090   12.5940    8.3410 O      14882 WAT       0.0454
  14883 WAT        12.9090   12.5940    8.5910 O      14883 WAT       0.0485
  14884 WAT        12.9090   12.8440    8.5910 O      14884 WAT       0.0459
  14885 WAT        12.9090   15.5940    6.3410 O      14885 WAT       0.0480
  14886 WAT        12.9090   15.5940    6.5910 O      14886 WAT       0.0508
  14887 WAT        12.9090   15.5940    6.8410 O      14887 WAT       0.0468
  14888 WAT        12.9090   15.8440    6.3410 O      14888 WAT       0.0515
  14889 WAT        12.9090   15.8440    6.5910 O      14889 WAT       0.0540
  14890 WAT        12.9090   15.8440    6.8410 O      14890 WAT       0.0484
  14891 WAT        12.9090   16.0940    6.3410 O      14891 WAT       0.0502
  14892 WAT        12.9090   16.0940    6.5910 O      14892 WAT       0.0510
  14893 WAT        12.9090   17.3440    4.8410 O      14893 WAT       0.0453
  14894 WAT        12.9090   17.3440    5.0910 O      14894 WAT       0.0478
  14895 WAT        12.9090   17.3440    5.3410 O      14895 WAT       0.0459
  14896 WAT        12.9090   17.5940    4.8410 O      14896 WAT       0.0458
  14897 WAT        12.9090   17.5940    5.0910 O      14897 WAT       0.0469
  14898 WAT        12.9090   19.0940    3.5910 O      14898 WAT       0.0487
  14899 WAT        12.9090   19.0940    3.8410 O      14899 WAT       0.0510
  14900 WAT        12.9090   19.0940    4.0910 O      14900 WAT       0.0465
  14901 WAT        12.9090   19.3440    3.3410 O      14901 WAT       0.0493
  14902 WAT        12.9090   19.3440    3.5910 O      14902 WAT       0.0567
  14903 WAT        12.9090   19.3440    3.8410 O      14903 WAT       0.0587
  14904 WAT        12.9090   19.3440    4.0910 O      14904 WAT       0.0526
  14905 WAT        12.9090   19.5940    3.3410 O      14905 WAT       0.0476
  14906 WAT        12.9090   19.5940    3.5910 O      14906 WAT       0.0535
  14907 WAT        12.9090   19.5940    3.8410 O      14907 WAT       0.0547
  14908 WAT        12.9090   19.5940    4.0910 O      14908 WAT       0.0486
  14909 WAT        12.9090   21.3440    2.5910 O      14909 WAT       0.0613
  14910 WAT        12.9090   21.3440    2.8410 O      14910 WAT       0.0564
  14911 WAT        12.9090   21.3440    3.0910 O      14911 WAT       0.0456
  14912 WAT        12.9090   21.3440    3.8410 O      14912 WAT       0.0505
  14913 WAT        12.9090   21.3440    4.0910 O      14913 WAT       0.0545
  14914 WAT        12.9090   21.3440    4.3410 O      14914 WAT       0.0465
  14915 WAT        12.9090   21.5940    2.5910 O      14915 WAT       0.0775
  14916 WAT        12.9090   21.5940    2.8410 O      14916 WAT       0.0710
  14917 WAT        12.9090   21.5940    3.0910 O      14917 WAT       0.0602
  14918 WAT        12.9090   21.5940    3.3410 O      14918 WAT       0.0594
  14919 WAT        12.9090   21.5940    3.5910 O      14919 WAT       0.0761
  14920 WAT        12.9090   21.5940    3.8410 O      14920 WAT       0.1030
  14921 WAT        12.9090   21.5940    4.0910 O      14921 WAT       0.1195
  14922 WAT        12.9090   21.5940    4.3410 O      14922 WAT       0.1075
  14923 WAT        12.9090   21.5940    4.5910 O      14923 WAT       0.0720
  14924 WAT        12.9090   21.8440    2.5910 O      14924 WAT       0.0649
  14925 WAT        12.9090   21.8440    2.8410 O      14925 WAT       0.0594
  14926 WAT        12.9090   21.8440    3.0910 O      14926 WAT       0.0541
  14927 WAT        12.9090   21.8440    3.3410 O      14927 WAT       0.0640
  14928 WAT        12.9090   21.8440    3.5910 O      14928 WAT       0.0986
  14929 WAT        12.9090   21.8440    3.8410 O      14929 WAT       0.1506
  14930 WAT        12.9090   21.8440    4.0910 O      14930 WAT       0.1900
  14931 WAT        12.9090   21.8440    4.3410 O      14931 WAT       0.1842
  14932 WAT        12.9090   21.8440    4.5910 O      14932 WAT       0.1333
  14933 WAT        12.9090   21.8440    4.8410 O      14933 WAT       0.0707
  14934 WAT        12.9090   22.0940    3.3410 O      14934 WAT       0.0476
  14935 WAT        12.9090   22.0940    3.5910 O      14935 WAT       0.0878
  14936 WAT        12.9090   22.0940    3.8410 O      14936 WAT       0.1506
  14937 WAT        12.9090   22.0940    4.0910 O      14937 WAT       0.2087
  14938 WAT        12.9090   22.0940    4.3410 O      14938 WAT       0.2224
  14939 WAT        12.9090   22.0940    4.5910 O      14939 WAT       0.1788
  14940 WAT        12.9090   22.0940    4.8410 O      14940 WAT       0.1073
  14941 WAT        12.9090   22.0940    5.0910 O      14941 WAT       0.0477
  14942 WAT        12.9090   22.3440    3.5910 O      14942 WAT       0.0523
  14943 WAT        12.9090   22.3440    3.8410 O      14943 WAT       0.1012
  14944 WAT        12.9090   22.3440    4.0910 O      14944 WAT       0.1564
  14945 WAT        12.9090   22.3440    4.3410 O      14945 WAT       0.1875
  14946 WAT        12.9090   22.3440    4.5910 O      14946 WAT       0.1729
  14947 WAT        12.9090   22.3440    4.8410 O      14947 WAT       0.1220
  14948 WAT        12.9090   22.3440    5.0910 O      14948 WAT       0.0655
  14949 WAT        12.9090   22.5940    3.8410 O      14949 WAT       0.0454
  14950 WAT        12.9090   22.5940    4.0910 O      14950 WAT       0.0803
  14951 WAT        12.9090   22.5940    4.3410 O      14951 WAT       0.1121
  14952 WAT        12.9090   22.5940    4.5910 O      14952 WAT       0.1236
  14953 WAT        12.9090   22.5940    4.8410 O      14953 WAT       0.1071
  14954 WAT        12.9090   22.5940    5.0910 O      14954 WAT       0.0721
  14955 WAT        12.9090   22.8440    4.3410 O      14955 WAT       0.0492
  14956 WAT        12.9090   22.8440    4.5910 O      14956 WAT       0.0684
  14957 WAT        12.9090   22.8440    4.8410 O      14957 WAT       0.0760
  14958 WAT        12.9090   22.8440    5.0910 O      14958 WAT       0.0657
  14959 WAT        12.9090   23.0940    4.8410 O      14959 WAT       0.0456
  14960 WAT        12.9090   23.0940    5.0910 O      14960 WAT       0.0508
  14961 WAT        13.1590    8.8440   12.3410 O      14961 WAT       0.0492
  14962 WAT        13.1590    8.8440   12.5910 O      14962 WAT       0.0455
  14963 WAT        13.1590    9.0940   11.8410 O      14963 WAT       0.0547
  14964 WAT        13.1590    9.0940   12.0910 O      14964 WAT       0.0722
  14965 WAT        13.1590    9.0940   12.3410 O      14965 WAT       0.0807
  14966 WAT        13.1590    9.0940   12.5910 O      14966 WAT       0.0743
  14967 WAT        13.1590    9.0940   12.8410 O      14967 WAT       0.0557
  14968 WAT        13.1590    9.3440   11.5910 O      14968 WAT       0.0563
  14969 WAT        13.1590    9.3440   11.8410 O      14969 WAT       0.0818
  14970 WAT        13.1590    9.3440   12.0910 O      14970 WAT       0.1040
  14971 WAT        13.1590    9.3440   12.3410 O      14971 WAT       0.1119
  14972 WAT        13.1590    9.3440   12.5910 O      14972 WAT       0.1000
  14973 WAT        13.1590    9.3440   12.8410 O      14973 WAT       0.0731
  14974 WAT        13.1590    9.5940   11.3410 O      14974 WAT       0.0474
  14975 WAT        13.1590    9.5940   11.5910 O      14975 WAT       0.0718
  14976 WAT        13.1590    9.5940   11.8410 O      14976 WAT       0.0988
  14977 WAT        13.1590    9.5940   12.0910 O      14977 WAT       0.1184
  14978 WAT        13.1590    9.5940   12.3410 O      14978 WAT       0.1202
  14979 WAT        13.1590    9.5940   12.5910 O      14979 WAT       0.1018
  14980 WAT        13.1590    9.5940   12.8410 O      14980 WAT       0.0711
  14981 WAT        13.1590    9.8440   11.3410 O      14981 WAT       0.0499
  14982 WAT        13.1590    9.8440   11.5910 O      14982 WAT       0.0706
  14983 WAT        13.1590    9.8440   11.8410 O      14983 WAT       0.0904
  14984 WAT        13.1590    9.8440   12.0910 O      14984 WAT       0.1005
  14985 WAT        13.1590    9.8440   12.3410 O      14985 WAT       0.0945
  14986 WAT        13.1590    9.8440   12.5910 O      14986 WAT       0.0745
  14987 WAT        13.1590    9.8440   12.8410 O      14987 WAT       0.0490
  14988 WAT        13.1590   10.0940   11.5910 O      14988 WAT       0.0513
  14989 WAT        13.1590   10.0940   11.8410 O      14989 WAT       0.0603
  14990 WAT        13.1590   10.0940   12.0910 O      14990 WAT       0.0613
  14991 WAT        13.1590   10.0940   12.3410 O      14991 WAT       0.0526
  14992 WAT        13.1590   12.0940    8.5910 O      14992 WAT       0.0451
  14993 WAT        13.1590   12.3440    8.3410 O      14993 WAT       0.0456
  14994 WAT        13.1590   12.3440    8.5910 O      14994 WAT       0.0464
  14995 WAT        13.1590   15.5940    6.3410 O      14995 WAT       0.0471
  14996 WAT        13.1590   15.5940    6.5910 O      14996 WAT       0.0476
  14997 WAT        13.1590   15.8440    6.3410 O      14997 WAT       0.0493
  14998 WAT        13.1590   15.8440    6.5910 O      14998 WAT       0.0492
  14999 WAT        13.1590   16.0940    6.3410 O      14999 WAT       0.0456
  15000 WAT        13.1590   17.0940    5.0910 O      15000 WAT       0.0450
  15001 WAT        13.1590   17.3440    4.8410 O      15001 WAT       0.0485
  15002 WAT        13.1590   17.3440    5.0910 O      15002 WAT       0.0491
  15003 WAT        13.1590   17.5940    4.8410 O      15003 WAT       0.0478
  15004 WAT        13.1590   17.5940    5.0910 O      15004 WAT       0.0467
  15005 WAT        13.1590   19.0940    3.5910 O      15005 WAT       0.0454
  15006 WAT        13.1590   19.0940    3.8410 O      15006 WAT       0.0453
  15007 WAT        13.1590   19.3440    3.3410 O      15007 WAT       0.0458
  15008 WAT        13.1590   19.3440    3.5910 O      15008 WAT       0.0503
  15009 WAT        13.1590   19.3440    3.8410 O      15009 WAT       0.0495
  15010 WAT        13.1590   19.5940    3.5910 O      15010 WAT       0.0458
  15011 WAT        13.1590   21.3440    2.5910 O      15011 WAT       0.0475
  15012 WAT        13.1590   21.3440    3.8410 O      15012 WAT       0.0561
  15013 WAT        13.1590   21.3440    4.0910 O      15013 WAT       0.0610
  15014 WAT        13.1590   21.3440    4.3410 O      15014 WAT       0.0506
  15015 WAT        13.1590   21.5940    2.5910 O      15015 WAT       0.0635
  15016 WAT        13.1590   21.5940    2.8410 O      15016 WAT       0.0566
  15017 WAT        13.1590   21.5940    3.0910 O      15017 WAT       0.0498
  15018 WAT        13.1590   21.5940    3.3410 O      15018 WAT       0.0571
  15019 WAT        13.1590   21.5940    3.5910 O      15019 WAT       0.0832
  15020 WAT        13.1590   21.5940    3.8410 O      15020 WAT       0.1164
  15021 WAT        13.1590   21.5940    4.0910 O      15021 WAT       0.1317
  15022 WAT        13.1590   21.5940    4.3410 O      15022 WAT       0.1132
  15023 WAT        13.1590   21.5940    4.5910 O      15023 WAT       0.0718
  15024 WAT        13.1590   21.8440    2.5910 O      15024 WAT       0.0568
  15025 WAT        13.1590   21.8440    2.8410 O      15025 WAT       0.0509
  15026 WAT        13.1590   21.8440    3.0910 O      15026 WAT       0.0494
  15027 WAT        13.1590   21.8440    3.3410 O      15027 WAT       0.0678
  15028 WAT        13.1590   21.8440    3.5910 O      15028 WAT       0.1130
  15029 WAT        13.1590   21.8440    3.8410 O      15029 WAT       0.1711
  15030 WAT        13.1590   21.8440    4.0910 O      15030 WAT       0.2053
  15031 WAT        13.1590   21.8440    4.3410 O      15031 WAT       0.1865
  15032 WAT        13.1590   21.8440    4.5910 O      15032 WAT       0.1257
  15033 WAT        13.1590   21.8440    4.8410 O      15033 WAT       0.0620
  15034 WAT        13.1590   22.0940    3.3410 O      15034 WAT       0.0547
  15035 WAT        13.1590   22.0940    3.5910 O      15035 WAT       0.1035
  15036 WAT        13.1590   22.0940    3.8410 O      15036 WAT       0.1699
  15037 WAT        13.1590   22.0940    4.0910 O      15037 WAT       0.2190
  15038 WAT        13.1590   22.0940    4.3410 O      15038 WAT       0.2146
  15039 WAT        13.1590   22.0940    4.5910 O      15039 WAT       0.1580
  15040 WAT        13.1590   22.0940    4.8410 O      15040 WAT       0.0868
  15041 WAT        13.1590   22.3440    3.5910 O      15041 WAT       0.0623
  15042 WAT        13.1590   22.3440    3.8410 O      15042 WAT       0.1118
  15043 WAT        13.1590   22.3440    4.0910 O      15043 WAT       0.1571
  15044 WAT        13.1590   22.3440    4.3410 O      15044 WAT       0.1700
  15045 WAT        13.1590   22.3440    4.5910 O      15045 WAT       0.1410
  15046 WAT        13.1590   22.3440    4.8410 O      15046 WAT       0.0897
  15047 WAT        13.1590   22.5940    3.8410 O      15047 WAT       0.0483
  15048 WAT        13.1590   22.5940    4.0910 O      15048 WAT       0.0758
  15049 WAT        13.1590   22.5940    4.3410 O      15049 WAT       0.0933
  15050 WAT        13.1590   22.5940    4.5910 O      15050 WAT       0.0908
  15051 WAT        13.1590   22.5940    4.8410 O      15051 WAT       0.0700
  15052 WAT        13.4090    8.8440   12.0910 O      15052 WAT       0.0553
  15053 WAT        13.4090    8.8440   12.3410 O      15053 WAT       0.0588
  15054 WAT        13.4090    8.8440   12.5910 O      15054 WAT       0.0501
  15055 WAT        13.4090    9.0940   11.5910 O      15055 WAT       0.0508
  15056 WAT        13.4090    9.0940   11.8410 O      15056 WAT       0.0748
  15057 WAT        13.4090    9.0940   12.0910 O      15057 WAT       0.0956
  15058 WAT        13.4090    9.0940   12.3410 O      15058 WAT       0.1015
  15059 WAT        13.4090    9.0940   12.5910 O      15059 WAT       0.0869
  15060 WAT        13.4090    9.0940   12.8410 O      15060 WAT       0.0588
  15061 WAT        13.4090    9.3440   11.3410 O      15061 WAT       0.0491
  15062 WAT        13.4090    9.3440   11.5910 O      15062 WAT       0.0780
  15063 WAT        13.4090    9.3440   11.8410 O      15063 WAT       0.1115
  15064 WAT        13.4090    9.3440   12.0910 O      15064 WAT       0.1376
  15065 WAT        13.4090    9.3440   12.3410 O      15065 WAT       0.1417
  15066 WAT        13.4090    9.3440   12.5910 O      15066 WAT       0.1183
  15067 WAT        13.4090    9.3440   12.8410 O      15067 WAT       0.0787
  15068 WAT        13.4090    9.5940   11.3410 O      15068 WAT       0.0639
  15069 WAT        13.4090    9.5940   11.5910 O      15069 WAT       0.0964
  15070 WAT        13.4090    9.5940   11.8410 O      15070 WAT       0.1301
  15071 WAT        13.4090    9.5940   12.0910 O      15071 WAT       0.1516
  15072 WAT        13.4090    9.5940   12.3410 O      15072 WAT       0.1479
  15073 WAT        13.4090    9.5940   12.5910 O      15073 WAT       0.1180
  15074 WAT        13.4090    9.5940   12.8410 O      15074 WAT       0.0757
  15075 WAT        13.4090    9.8440   11.3410 O      15075 WAT       0.0641
  15076 WAT        13.4090    9.8440   11.5910 O      15076 WAT       0.0900
  15077 WAT        13.4090    9.8440   11.8410 O      15077 WAT       0.1129
  15078 WAT        13.4090    9.8440   12.0910 O      15078 WAT       0.1220
  15079 WAT        13.4090    9.8440   12.3410 O      15079 WAT       0.1106
  15080 WAT        13.4090    9.8440   12.5910 O      15080 WAT       0.0827
  15081 WAT        13.4090    9.8440   12.8410 O      15081 WAT       0.0502
  15082 WAT        13.4090   10.0940   11.3410 O      15082 WAT       0.0476
  15083 WAT        13.4090   10.0940   11.5910 O      15083 WAT       0.0613
  15084 WAT        13.4090   10.0940   11.8410 O      15084 WAT       0.0704
  15085 WAT        13.4090   10.0940   12.0910 O      15085 WAT       0.0696
  15086 WAT        13.4090   10.0940   12.3410 O      15086 WAT       0.0577
  15087 WAT        13.4090   14.3440    8.5910 O      15087 WAT       0.0459
  15088 WAT        13.4090   14.5940    8.5910 O      15088 WAT       0.0462
  15089 WAT        13.4090   15.5940    6.3410 O      15089 WAT       0.0459
  15090 WAT        13.4090   15.5940    6.5910 O      15090 WAT       0.0450
  15091 WAT        13.4090   15.8440    6.3410 O      15091 WAT       0.0464
  15092 WAT        13.4090   17.0940    4.8410 O      15092 WAT       0.0463
  15093 WAT        13.4090   17.0940    5.0910 O      15093 WAT       0.0463
  15094 WAT        13.4090   17.3440    4.5910 O      15094 WAT       0.0466
  15095 WAT        13.4090   17.3440    4.8410 O      15095 WAT       0.0515
  15096 WAT        13.4090   17.3440    5.0910 O      15096 WAT       0.0501
  15097 WAT        13.4090   17.5940    4.5910 O      15097 WAT       0.0467
  15098 WAT        13.4090   17.5940    4.8410 O      15098 WAT       0.0502
  15099 WAT        13.4090   17.5940    5.0910 O      15099 WAT       0.0467
  15100 WAT        13.4090   21.3440    3.8410 O      15100 WAT       0.0531
  15101 WAT        13.4090   21.3440    4.0910 O      15101 WAT       0.0553
  15102 WAT        13.4090   21.5940    3.3410 O      15102 WAT       0.0488
  15103 WAT        13.4090   21.5940    3.5910 O      15103 WAT       0.0769
  15104 WAT        13.4090   21.5940    3.8410 O      15104 WAT       0.1055
  15105 WAT        13.4090   21.5940    4.0910 O      15105 WAT       0.1123
  15106 WAT        13.4090   21.5940    4.3410 O      15106 WAT       0.0894
  15107 WAT        13.4090   21.5940    4.5910 O      15107 WAT       0.0524
  15108 WAT        13.4090   21.8440    3.3410 O      15108 WAT       0.0610
  15109 WAT        13.4090   21.8440    3.5910 O      15109 WAT       0.1046
  15110 WAT        13.4090   21.8440    3.8410 O      15110 WAT       0.1508
  15111 WAT        13.4090   21.8440    4.0910 O      15111 WAT       0.1673
  15112 WAT        13.4090   21.8440    4.3410 O      15112 WAT       0.1391
  15113 WAT        13.4090   21.8440    4.5910 O      15113 WAT       0.0856
  15114 WAT        13.4090   22.0940    3.3410 O      15114 WAT       0.0511
  15115 WAT        13.4090   22.0940    3.5910 O      15115 WAT       0.0953
  15116 WAT        13.4090   22.0940    3.8410 O      15116 WAT       0.1456
  15117 WAT        13.4090   22.0940    4.0910 O      15117 WAT       0.1708
  15118 WAT        13.4090   22.0940    4.3410 O      15118 WAT       0.1511
  15119 WAT        13.4090   22.0940    4.5910 O      15119 WAT       0.1002
  15120 WAT        13.4090   22.0940    4.8410 O      15120 WAT       0.0495
  15121 WAT        13.4090   22.3440    3.5910 O      15121 WAT       0.0565
  15122 WAT        13.4090   22.3440    3.8410 O      15122 WAT       0.0926
  15123 WAT        13.4090   22.3440    4.0910 O      15123 WAT       0.1166
  15124 WAT        13.4090   22.3440    4.3410 O      15124 WAT       0.1120
  15125 WAT        13.4090   22.3440    4.5910 O      15125 WAT       0.0824
  15126 WAT        13.4090   22.3440    4.8410 O      15126 WAT       0.0464
  15127 WAT        13.4090   22.5940    4.0910 O      15127 WAT       0.0526
  15128 WAT        13.4090   22.5940    4.3410 O      15128 WAT       0.0565
  15129 WAT        13.4090   22.5940    4.5910 O      15129 WAT       0.0477
  15130 WAT        13.6590    8.8440   11.8410 O      15130 WAT       0.0534
  15131 WAT        13.6590    8.8440   12.0910 O      15131 WAT       0.0655
  15132 WAT        13.6590    8.8440   12.3410 O      15132 WAT       0.0659
  15133 WAT        13.6590    8.8440   12.5910 O      15133 WAT       0.0523
  15134 WAT        13.6590    9.0940   11.5910 O      15134 WAT       0.0650
  15135 WAT        13.6590    9.0940   11.8410 O      15135 WAT       0.0932
  15136 WAT        13.6590    9.0940   12.0910 O      15136 WAT       0.1144
  15137 WAT        13.6590    9.0940   12.3410 O      15137 WAT       0.1156
  15138 WAT        13.6590    9.0940   12.5910 O      15138 WAT       0.0925
  15139 WAT        13.6590    9.0940   12.8410 O      15139 WAT       0.0570
  15140 WAT        13.6590    9.3440   11.3410 O      15140 WAT       0.0623
  15141 WAT        13.6590    9.3440   11.5910 O      15141 WAT       0.0973
  15142 WAT        13.6590    9.3440   11.8410 O      15142 WAT       0.1354
  15143 WAT        13.6590    9.3440   12.0910 O      15143 WAT       0.1613
  15144 WAT        13.6590    9.3440   12.3410 O      15144 WAT       0.1585
  15145 WAT        13.6590    9.3440   12.5910 O      15145 WAT       0.1242
  15146 WAT        13.6590    9.3440   12.8410 O      15146 WAT       0.0755
  15147 WAT        13.6590    9.5940   11.0910 O      15147 WAT       0.0487
  15148 WAT        13.6590    9.5940   11.3410 O      15148 WAT       0.0776
  15149 WAT        13.6590    9.5940   11.5910 O      15149 WAT       0.1149
  15150 WAT        13.6590    9.5940   11.8410 O      15150 WAT       0.1511
  15151 WAT        13.6590    9.5940   12.0910 O      15151 WAT       0.1702
  15152 WAT        13.6590    9.5940   12.3410 O      15152 WAT       0.1589
  15153 WAT        13.6590    9.5940   12.5910 O      15153 WAT       0.1194
  15154 WAT        13.6590    9.5940   12.8410 O      15154 WAT       0.0703
  15155 WAT        13.6590    9.8440   11.0910 O      15155 WAT       0.0494
  15156 WAT        13.6590    9.8440   11.3410 O      15156 WAT       0.0736
  15157 WAT        13.6590    9.8440   11.5910 O      15157 WAT       0.1013
  15158 WAT        13.6590    9.8440   11.8410 O      15158 WAT       0.1236
  15159 WAT        13.6590    9.8440   12.0910 O      15159 WAT       0.1293
  15160 WAT        13.6590    9.8440   12.3410 O      15160 WAT       0.1126
  15161 WAT        13.6590    9.8440   12.5910 O      15161 WAT       0.0795
  15162 WAT        13.6590   10.0940   11.3410 O      15162 WAT       0.0512
  15163 WAT        13.6590   10.0940   11.5910 O      15163 WAT       0.0645
  15164 WAT        13.6590   10.0940   11.8410 O      15164 WAT       0.0721
  15165 WAT        13.6590   10.0940   12.0910 O      15165 WAT       0.0689
  15166 WAT        13.6590   10.0940   12.3410 O      15166 WAT       0.0549
  15167 WAT        13.6590   14.0940    8.5910 O      15167 WAT       0.0455
  15168 WAT        13.6590   14.0940    8.8410 O      15168 WAT       0.0461
  15169 WAT        13.6590   14.3440    8.3410 O      15169 WAT       0.0483
  15170 WAT        13.6590   14.3440    8.5910 O      15170 WAT       0.0623
  15171 WAT        13.6590   14.3440    8.8410 O      15171 WAT       0.0626
  15172 WAT        13.6590   14.3440    9.0910 O      15172 WAT       0.0452
  15173 WAT        13.6590   14.5940    8.3410 O      15173 WAT       0.0587
  15174 WAT        13.6590   14.5940    8.5910 O      15174 WAT       0.0733
  15175 WAT        13.6590   14.5940    8.8410 O      15175 WAT       0.0684
  15176 WAT        13.6590   14.5940    9.0910 O      15176 WAT       0.0452
  15177 WAT        13.6590   14.8440    8.3410 O      15177 WAT       0.0617
  15178 WAT        13.6590   14.8440    8.5910 O      15178 WAT       0.0705
  15179 WAT        13.6590   14.8440    8.8410 O      15179 WAT       0.0588
  15180 WAT        13.6590   15.0940    8.3410 O      15180 WAT       0.0541
  15181 WAT        13.6590   15.0940    8.5910 O      15181 WAT       0.0547
  15182 WAT        13.6590   15.5940    6.3410 O      15182 WAT       0.0454
  15183 WAT        13.6590   17.0940    4.8410 O      15183 WAT       0.0473
  15184 WAT        13.6590   17.0940    5.0910 O      15184 WAT       0.0462
  15185 WAT        13.6590   17.3440    4.5910 O      15185 WAT       0.0486
  15186 WAT        13.6590   17.3440    4.8410 O      15186 WAT       0.0533
  15187 WAT        13.6590   17.3440    5.0910 O      15187 WAT       0.0502
  15188 WAT        13.6590   17.5940    4.5910 O      15188 WAT       0.0494
  15189 WAT        13.6590   17.5940    4.8410 O      15189 WAT       0.0522
  15190 WAT        13.6590   17.5940    5.0910 O      15190 WAT       0.0466
  15191 WAT        13.6590   21.5940    3.5910 O      15191 WAT       0.0585
  15192 WAT        13.6590   21.5940    3.8410 O      15192 WAT       0.0751
  15193 WAT        13.6590   21.5940    4.0910 O      15193 WAT       0.0727
  15194 WAT        13.6590   21.5940    4.3410 O      15194 WAT       0.0521
  15195 WAT        13.6590   21.8440    3.5910 O      15195 WAT       0.0758
  15196 WAT        13.6590   21.8440    3.8410 O      15196 WAT       0.1010
  15197 WAT        13.6590   21.8440    4.0910 O      15197 WAT       0.1013
  15198 WAT        13.6590   21.8440    4.3410 O      15198 WAT       0.0754
  15199 WAT        13.6590   22.0940    3.5910 O      15199 WAT       0.0667
  15200 WAT        13.6590   22.0940    3.8410 O      15200 WAT       0.0931
  15201 WAT        13.6590   22.0940    4.0910 O      15201 WAT       0.0978
  15202 WAT        13.6590   22.0940    4.3410 O      15202 WAT       0.0767
  15203 WAT        13.6590   22.3440    3.8410 O      15203 WAT       0.0565
  15204 WAT        13.6590   22.3440    4.0910 O      15204 WAT       0.0630
  15205 WAT        13.6590   22.3440    4.3410 O      15205 WAT       0.0530
  15206 WAT        13.9090    8.8440   11.8410 O      15206 WAT       0.0601
  15207 WAT        13.9090    8.8440   12.0910 O      15207 WAT       0.0701
  15208 WAT        13.9090    8.8440   12.3410 O      15208 WAT       0.0667
  15209 WAT        13.9090    8.8440   12.5910 O      15209 WAT       0.0494
  15210 WAT        13.9090    9.0940   11.3410 O      15210 WAT       0.0487
  15211 WAT        13.9090    9.0940   11.5910 O      15211 WAT       0.0751
  15212 WAT        13.9090    9.0940   11.8410 O      15212 WAT       0.1030
  15213 WAT        13.9090    9.0940   12.0910 O      15213 WAT       0.1206
  15214 WAT        13.9090    9.0940   12.3410 O      15214 WAT       0.1153
  15215 WAT        13.9090    9.0940   12.5910 O      15215 WAT       0.0863
  15216 WAT        13.9090    9.0940   12.8410 O      15216 WAT       0.0489
  15217 WAT        13.9090    9.3440   11.3410 O      15217 WAT       0.0712
  15218 WAT        13.9090    9.3440   11.5910 O      15218 WAT       0.1076
  15219 WAT        13.9090    9.3440   11.8410 O      15219 WAT       0.1438
  15220 WAT        13.9090    9.3440   12.0910 O      15220 WAT       0.1636
  15221 WAT        13.9090    9.3440   12.3410 O      15221 WAT       0.1525
  15222 WAT        13.9090    9.3440   12.5910 O      15222 WAT       0.1120
  15223 WAT        13.9090    9.3440   12.8410 O      15223 WAT       0.0627
  15224 WAT        13.9090    9.5940   11.0910 O      15224 WAT       0.0538
  15225 WAT        13.9090    9.5940   11.3410 O      15225 WAT       0.0837
  15226 WAT        13.9090    9.5940   11.5910 O      15226 WAT       0.1201
  15227 WAT        13.9090    9.5940   11.8410 O      15227 WAT       0.1520
  15228 WAT        13.9090    9.5940   12.0910 O      15228 WAT       0.1641
  15229 WAT        13.9090    9.5940   12.3410 O      15229 WAT       0.1457
  15230 WAT        13.9090    9.5940   12.5910 O      15230 WAT       0.1028
  15231 WAT        13.9090    9.5940   12.8410 O      15231 WAT       0.0558
  15232 WAT        13.9090    9.8440   11.0910 O      15232 WAT       0.0513
  15233 WAT        13.9090    9.8440   11.3410 O      15233 WAT       0.0744
  15234 WAT        13.9090    9.8440   11.5910 O      15234 WAT       0.0992
  15235 WAT        13.9090    9.8440   11.8410 O      15235 WAT       0.1169
  15236 WAT        13.9090    9.8440   12.0910 O      15236 WAT       0.1173
  15237 WAT        13.9090    9.8440   12.3410 O      15237 WAT       0.0973
  15238 WAT        13.9090    9.8440   12.5910 O      15238 WAT       0.0647
  15239 WAT        13.9090   10.0940   11.3410 O      15239 WAT       0.0481
  15240 WAT        13.9090   10.0940   11.5910 O      15240 WAT       0.0587
  15241 WAT        13.9090   10.0940   11.8410 O      15241 WAT       0.0634
  15242 WAT        13.9090   10.0940   12.0910 O      15242 WAT       0.0583
  15243 WAT        13.9090   14.0940    8.5910 O      15243 WAT       0.0487
  15244 WAT        13.9090   14.0940    8.8410 O      15244 WAT       0.0507
  15245 WAT        13.9090   14.3440    8.3410 O      15245 WAT       0.0560
  15246 WAT        13.9090   14.3440    8.5910 O      15246 WAT       0.0783
  15247 WAT        13.9090   14.3440    8.8410 O      15247 WAT       0.0815
  15248 WAT        13.9090   14.3440    9.0910 O      15248 WAT       0.0593
  15249 WAT        13.9090   14.5940    8.0910 O      15249 WAT       0.0456
  15250 WAT        13.9090   14.5940    8.3410 O      15250 WAT       0.0775
  15251 WAT        13.9090   14.5940    8.5910 O      15251 WAT       0.1048
  15252 WAT        13.9090   14.5940    8.8410 O      15252 WAT       0.1022
  15253 WAT        13.9090   14.5940    9.0910 O      15253 WAT       0.0692
  15254 WAT        13.9090   14.8440    8.0910 O      15254 WAT       0.0552
  15255 WAT        13.9090   14.8440    8.3410 O      15255 WAT       0.0901
  15256 WAT        13.9090   14.8440    8.5910 O      15256 WAT       0.1115
  15257 WAT        13.9090   14.8440    8.8410 O      15257 WAT       0.0984
  15258 WAT        13.9090   14.8440    9.0910 O      15258 WAT       0.0603
  15259 WAT        13.9090   15.0940    8.0910 O      15259 WAT       0.0571
  15260 WAT        13.9090   15.0940    8.3410 O      15260 WAT       0.0855
  15261 WAT        13.9090   15.0940    8.5910 O      15261 WAT       0.0944
  15262 WAT        13.9090   15.0940    8.8410 O      15262 WAT       0.0737
  15263 WAT        13.9090   15.3440    8.0910 O      15263 WAT       0.0477
  15264 WAT        13.9090   15.3440    8.3410 O      15264 WAT       0.0649
  15265 WAT        13.9090   15.3440    8.5910 O      15265 WAT       0.0638
  15266 WAT        13.9090   15.5940    6.3410 O      15266 WAT       0.0456
  15267 WAT        13.9090   17.0940    4.8410 O      15267 WAT       0.0474
  15268 WAT        13.9090   17.0940    5.0910 O      15268 WAT       0.0460
  15269 WAT        13.9090   17.3440    4.5910 O      15269 WAT       0.0497
  15270 WAT        13.9090   17.3440    4.8410 O      15270 WAT       0.0541
  15271 WAT        13.9090   17.3440    5.0910 O      15271 WAT       0.0500
  15272 WAT        13.9090   17.5940    4.5910 O      15272 WAT       0.0519
  15273 WAT        13.9090   17.5940    4.8410 O      15273 WAT       0.0540
  15274 WAT        13.9090   17.5940    5.0910 O      15274 WAT       0.0467
  15275 WAT        13.9090   17.8440    4.5910 O      15275 WAT       0.0474
  15276 WAT        13.9090   17.8440    4.8410 O      15276 WAT       0.0453
  15277 WAT        13.9090   21.8440    3.8410 O      15277 WAT       0.0526
  15278 WAT        13.9090   21.8440    4.0910 O      15278 WAT       0.0460
  15279 WAT        14.1590    8.8440   11.5910 O      15279 WAT       0.0484
  15280 WAT        14.1590    8.8440   11.8410 O      15280 WAT       0.0619
  15281 WAT        14.1590    8.8440   12.0910 O      15281 WAT       0.0677
  15282 WAT        14.1590    8.8440   12.3410 O      15282 WAT       0.0602
  15283 WAT        14.1590    9.0940   11.3410 O      15283 WAT       0.0529
  15284 WAT        14.1590    9.0940   11.5910 O      15284 WAT       0.0779
  15285 WAT        14.1590    9.0940   11.8410 O      15285 WAT       0.1014
  15286 WAT        14.1590    9.0940   12.0910 O      15286 WAT       0.1117
  15287 WAT        14.1590    9.0940   12.3410 O      15287 WAT       0.1000
  15288 WAT        14.1590    9.0940   12.5910 O      15288 WAT       0.0697
  15289 WAT        14.1590    9.3440   11.0910 O      15289 WAT       0.0462
  15290 WAT        14.1590    9.3440   11.3410 O      15290 WAT       0.0726
  15291 WAT        14.1590    9.3440   11.5910 O      15291 WAT       0.1051
  15292 WAT        14.1590    9.3440   11.8410 O      15292 WAT       0.1335
  15293 WAT        14.1590    9.3440   12.0910 O      15293 WAT       0.1434
  15294 WAT        14.1590    9.3440   12.3410 O      15294 WAT       0.1255
  15295 WAT        14.1590    9.3440   12.5910 O      15295 WAT       0.0861
  15296 WAT        14.1590    9.5940   11.0910 O      15296 WAT       0.0531
  15297 WAT        14.1590    9.5940   11.3410 O      15297 WAT       0.0797
  15298 WAT        14.1590    9.5940   11.5910 O      15298 WAT       0.1097
  15299 WAT        14.1590    9.5940   11.8410 O      15299 WAT       0.1323
  15300 WAT        14.1590    9.5940   12.0910 O      15300 WAT       0.1352
  15301 WAT        14.1590    9.5940   12.3410 O      15301 WAT       0.1131
  15302 WAT        14.1590    9.5940   12.5910 O      15302 WAT       0.0745
  15303 WAT        14.1590    9.8440   11.0910 O      15303 WAT       0.0472
  15304 WAT        14.1590    9.8440   11.3410 O      15304 WAT       0.0659
  15305 WAT        14.1590    9.8440   11.5910 O      15305 WAT       0.0843
  15306 WAT        14.1590    9.8440   11.8410 O      15306 WAT       0.0948
  15307 WAT        14.1590    9.8440   12.0910 O      15307 WAT       0.0904
  15308 WAT        14.1590    9.8440   12.3410 O      15308 WAT       0.0708
  15309 WAT        14.1590   10.0940   11.5910 O      15309 WAT       0.0462
  15310 WAT        14.1590   10.0940   11.8410 O      15310 WAT       0.0476
  15311 WAT        14.1590   14.0940    8.5910 O      15311 WAT       0.0461
  15312 WAT        14.1590   14.0940    8.8410 O      15312 WAT       0.0492
  15313 WAT        14.1590   14.3440    8.3410 O      15313 WAT       0.0575
  15314 WAT        14.1590   14.3440    8.5910 O      15314 WAT       0.0849
  15315 WAT        14.1590   14.3440    8.8410 O      15315 WAT       0.0912
  15316 WAT        14.1590   14.3440    9.0910 O      15316 WAT       0.0674
  15317 WAT        14.1590   14.5940    8.0910 O      15317 WAT       0.0471
  15318 WAT        14.1590   14.5940    8.3410 O      15318 WAT       0.0883
  15319 WAT        14.1590   14.5940    8.5910 O      15319 WAT       0.1265
  15320 WAT        14.1590   14.5940    8.8410 O      15320 WAT       0.1286
  15321 WAT        14.1590   14.5940    9.0910 O      15321 WAT       0.0897
  15322 WAT        14.1590   14.8440    8.0910 O      15322 WAT       0.0620
  15323 WAT        14.1590   14.8440    8.3410 O      15323 WAT       0.1110
  15324 WAT        14.1590   14.8440    8.5910 O      15324 WAT       0.1467
  15325 WAT        14.1590   14.8440    8.8410 O      15325 WAT       0.1368
  15326 WAT        14.1590   14.8440    9.0910 O      15326 WAT       0.0883
  15327 WAT        14.1590   15.0940    8.0910 O      15327 WAT       0.0678
  15328 WAT        14.1590   15.0940    8.3410 O      15328 WAT       0.1119
  15329 WAT        14.1590   15.0940    8.5910 O      15329 WAT       0.1335
  15330 WAT        14.1590   15.0940    8.8410 O      15330 WAT       0.1122
  15331 WAT        14.1590   15.0940    9.0910 O      15331 WAT       0.0656
  15332 WAT        14.1590   15.3440    8.0910 O      15332 WAT       0.0589
  15333 WAT        14.1590   15.3440    8.3410 O      15333 WAT       0.0892
  15334 WAT        14.1590   15.3440    8.5910 O      15334 WAT       0.0962
  15335 WAT        14.1590   15.3440    8.8410 O      15335 WAT       0.0725
  15336 WAT        14.1590   15.5940    6.3410 O      15336 WAT       0.0461
  15337 WAT        14.1590   15.5940    8.3410 O      15337 WAT       0.0546
  15338 WAT        14.1590   15.5940    8.5910 O      15338 WAT       0.0540
  15339 WAT        14.1590   17.0940    4.8410 O      15339 WAT       0.0479
  15340 WAT        14.1590   17.0940    5.0910 O      15340 WAT       0.0465
  15341 WAT        14.1590   17.3440    4.5910 O      15341 WAT       0.0506
  15342 WAT        14.1590   17.3440    4.8410 O      15342 WAT       0.0549
  15343 WAT        14.1590   17.3440    5.0910 O      15343 WAT       0.0504
  15344 WAT        14.1590   17.5940    4.3410 O      15344 WAT       0.0460
  15345 WAT        14.1590   17.5940    4.5910 O      15345 WAT       0.0543
  15346 WAT        14.1590   17.5940    4.8410 O      15346 WAT       0.0558
  15347 WAT        14.1590   17.5940    5.0910 O      15347 WAT       0.0474
  15348 WAT        14.1590   17.8440    4.3410 O      15348 WAT       0.0467
  15349 WAT        14.1590   17.8440    4.5910 O      15349 WAT       0.0510
  15350 WAT        14.1590   17.8440    4.8410 O      15350 WAT       0.0479
  15351 WAT        14.4090    8.8440   11.5910 O      15351 WAT       0.0493
  15352 WAT        14.4090    8.8440   11.8410 O      15352 WAT       0.0592
  15353 WAT        14.4090    8.8440   12.0910 O      15353 WAT       0.0601
  15354 WAT        14.4090    8.8440   12.3410 O      15354 WAT       0.0493
  15355 WAT        14.4090    9.0940   11.3410 O      15355 WAT       0.0526
  15356 WAT        14.4090    9.0940   11.5910 O      15356 WAT       0.0732
  15357 WAT        14.4090    9.0940   11.8410 O      15357 WAT       0.0897
  15358 WAT        14.4090    9.0940   12.0910 O      15358 WAT       0.0924
  15359 WAT        14.4090    9.0940   12.3410 O      15359 WAT       0.0767
  15360 WAT        14.4090    9.0940   12.5910 O      15360 WAT       0.0494
  15361 WAT        14.4090    9.3440   11.3410 O      15361 WAT       0.0664
  15362 WAT        14.4090    9.3440   11.5910 O      15362 WAT       0.0911
  15363 WAT        14.4090    9.3440   11.8410 O      15363 WAT       0.1093
  15364 WAT        14.4090    9.3440   12.0910 O      15364 WAT       0.1100
  15365 WAT        14.4090    9.3440   12.3410 O      15365 WAT       0.0895
  15366 WAT        14.4090    9.3440   12.5910 O      15366 WAT       0.0567
  15367 WAT        14.4090    9.5940   11.0910 O      15367 WAT       0.0472
  15368 WAT        14.4090    9.5940   11.3410 O      15368 WAT       0.0673
  15369 WAT        14.4090    9.5940   11.5910 O      15369 WAT       0.0879
  15370 WAT        14.4090    9.5940   11.8410 O      15370 WAT       0.1002
  15371 WAT        14.4090    9.5940   12.0910 O      15371 WAT       0.0960
  15372 WAT        14.4090    9.5940   12.3410 O      15372 WAT       0.0747
  15373 WAT        14.4090    9.5940   12.5910 O      15373 WAT       0.0456
  15374 WAT        14.4090    9.8440   11.3410 O      15374 WAT       0.0514
  15375 WAT        14.4090    9.8440   11.5910 O      15375 WAT       0.0623
  15376 WAT        14.4090    9.8440   11.8410 O      15376 WAT       0.0661
  15377 WAT        14.4090    9.8440   12.0910 O      15377 WAT       0.0592
  15378 WAT        14.4090   14.3440    8.3410 O      15378 WAT       0.0496
  15379 WAT        14.4090   14.3440    8.5910 O      15379 WAT       0.0763
  15380 WAT        14.4090   14.3440    8.8410 O      15380 WAT       0.0843
  15381 WAT        14.4090   14.3440    9.0910 O      15381 WAT       0.0638
  15382 WAT        14.4090   14.5940    8.3410 O      15382 WAT       0.0832
  15383 WAT        14.4090   14.5940    8.5910 O      15383 WAT       0.1252
  15384 WAT        14.4090   14.5940    8.8410 O      15384 WAT       0.1328
  15385 WAT        14.4090   14.5940    9.0910 O      15385 WAT       0.0967
  15386 WAT        14.4090   14.5940    9.3410 O      15386 WAT       0.0475
  15387 WAT        14.4090   14.8440    8.0910 O      15387 WAT       0.0584
  15388 WAT        14.4090   14.8440    8.3410 O      15388 WAT       0.1122
  15389 WAT        14.4090   14.8440    8.5910 O      15389 WAT       0.1578
  15390 WAT        14.4090   14.8440    8.8410 O      15390 WAT       0.1567
  15391 WAT        14.4090   14.8440    9.0910 O      15391 WAT       0.1080
  15392 WAT        14.4090   14.8440    9.3410 O      15392 WAT       0.0510
  15393 WAT        14.4090   15.0940    8.0910 O      15393 WAT       0.0669
  15394 WAT        14.4090   15.0940    8.3410 O      15394 WAT       0.1199
  15395 WAT        14.4090   15.0940    8.5910 O      15395 WAT       0.1551
  15396 WAT        14.4090   15.0940    8.8410 O      15396 WAT       0.1421
  15397 WAT        14.4090   15.0940    9.0910 O      15397 WAT       0.0918
  15398 WAT        14.4090   15.3440    8.0910 O      15398 WAT       0.0604
  15399 WAT        14.4090   15.3440    8.3410 O      15399 WAT       0.1007
  15400 WAT        14.4090   15.3440    8.5910 O      15400 WAT       0.1201
  15401 WAT        14.4090   15.3440    8.8410 O      15401 WAT       0.1018
  15402 WAT        14.4090   15.3440    9.0910 O      15402 WAT       0.0618
  15403 WAT        14.4090   15.5940    6.3410 O      15403 WAT       0.0465
  15404 WAT        14.4090   15.5940    6.5910 O      15404 WAT       0.0451
  15405 WAT        14.4090   15.5940    8.3410 O      15405 WAT       0.0647
  15406 WAT        14.4090   15.5940    8.5910 O      15406 WAT       0.0725
  15407 WAT        14.4090   15.5940    8.8410 O      15407 WAT       0.0580
  15408 WAT        14.4090   17.0940    4.8410 O      15408 WAT       0.0483
  15409 WAT        14.4090   17.0940    5.0910 O      15409 WAT       0.0472
  15410 WAT        14.4090   17.3440    4.5910 O      15410 WAT       0.0507
  15411 WAT        14.4090   17.3440    4.8410 O      15411 WAT       0.0554
  15412 WAT        14.4090   17.3440    5.0910 O      15412 WAT       0.0512
  15413 WAT        14.4090   17.5940    4.3410 O      15413 WAT       0.0472
  15414 WAT        14.4090   17.5940    4.5910 O      15414 WAT       0.0554
  15415 WAT        14.4090   17.5940    4.8410 O      15415 WAT       0.0570
  15416 WAT        14.4090   17.5940    5.0910 O      15416 WAT       0.0487
  15417 WAT        14.4090   17.8440    4.3410 O      15417 WAT       0.0496
  15418 WAT        14.4090   17.8440    4.5910 O      15418 WAT       0.0536
  15419 WAT        14.4090   17.8440    4.8410 O      15419 WAT       0.0502
  15420 WAT        14.4090   18.0940    4.3410 O      15420 WAT       0.0468
  15421 WAT        14.4090   20.5940    3.5910 O      15421 WAT       0.0484
  15422 WAT        14.4090   20.8440    3.3410 O      15422 WAT       0.0564
  15423 WAT        14.4090   20.8440    3.5910 O      15423 WAT       0.0642
  15424 WAT        14.4090   20.8440    3.8410 O      15424 WAT       0.0507
  15425 WAT        14.4090   21.0940    3.3410 O      15425 WAT       0.0633
  15426 WAT        14.4090   21.0940    3.5910 O      15426 WAT       0.0685
  15427 WAT        14.4090   21.0940    3.8410 O      15427 WAT       0.0501
  15428 WAT        14.4090   21.3440    3.3410 O      15428 WAT       0.0557
  15429 WAT        14.4090   21.3440    3.5910 O      15429 WAT       0.0579
  15430 WAT        14.6590    8.8440   11.5910 O      15430 WAT       0.0482
  15431 WAT        14.6590    8.8440   11.8410 O      15431 WAT       0.0540
  15432 WAT        14.6590    8.8440   12.0910 O      15432 WAT       0.0507
  15433 WAT        14.6590    9.0940   11.3410 O      15433 WAT       0.0487
  15434 WAT        14.6590    9.0940   11.5910 O      15434 WAT       0.0635
  15435 WAT        14.6590    9.0940   11.8410 O      15435 WAT       0.0729
  15436 WAT        14.6590    9.0940   12.0910 O      15436 WAT       0.0700
  15437 WAT        14.6590    9.0940   12.3410 O      15437 WAT       0.0538
  15438 WAT        14.6590    9.3440   11.3410 O      15438 WAT       0.0555
  15439 WAT        14.6590    9.3440   11.5910 O      15439 WAT       0.0712
  15440 WAT        14.6590    9.3440   11.8410 O      15440 WAT       0.0800
  15441 WAT        14.6590    9.3440   12.0910 O      15441 WAT       0.0752
  15442 WAT        14.6590    9.3440   12.3410 O      15442 WAT       0.0568
  15443 WAT        14.6590    9.5940   11.3410 O      15443 WAT       0.0513
  15444 WAT        14.6590    9.5940   11.5910 O      15444 WAT       0.0626
  15445 WAT        14.6590    9.5940   11.8410 O      15445 WAT       0.0667
  15446 WAT        14.6590    9.5940   12.0910 O      15446 WAT       0.0596
  15447 WAT        14.6590   14.3440    8.5910 O      15447 WAT       0.0560
  15448 WAT        14.6590   14.3440    8.8410 O      15448 WAT       0.0639
  15449 WAT        14.6590   14.3440    9.0910 O      15449 WAT       0.0503
  15450 WAT        14.6590   14.5940    8.3410 O      15450 WAT       0.0642
  15451 WAT        14.6590   14.5940    8.5910 O      15451 WAT       0.1010
  15452 WAT        14.6590   14.5940    8.8410 O      15452 WAT       0.1129
  15453 WAT        14.6590   14.5940    9.0910 O      15453 WAT       0.0878
  15454 WAT        14.6590   14.5940    9.3410 O      15454 WAT       0.0470
  15455 WAT        14.6590   14.8440    8.0910 O      15455 WAT       0.0456
  15456 WAT        14.6590   14.8440    8.3410 O      15456 WAT       0.0928
  15457 WAT        14.6590   14.8440    8.5910 O      15457 WAT       0.1395
  15458 WAT        14.6590   14.8440    8.8410 O      15458 WAT       0.1503
  15459 WAT        14.6590   14.8440    9.0910 O      15459 WAT       0.1149
  15460 WAT        14.6590   14.8440    9.3410 O      15460 WAT       0.0625
  15461 WAT        14.6590   15.0940    8.0910 O      15461 WAT       0.0547
  15462 WAT        14.6590   15.0940    8.3410 O      15462 WAT       0.1060
  15463 WAT        14.6590   15.0940    8.5910 O      15463 WAT       0.1508
  15464 WAT        14.6590   15.0940    8.8410 O      15464 WAT       0.1559
  15465 WAT        14.6590   15.0940    9.0910 O      15465 WAT       0.1179
  15466 WAT        14.6590   15.0940    9.3410 O      15466 WAT       0.0660
  15467 WAT        14.6590   15.3440    8.0910 O      15467 WAT       0.0516
  15468 WAT        14.6590   15.3440    8.3410 O      15468 WAT       0.0953
  15469 WAT        14.6590   15.3440    8.5910 O      15469 WAT       0.1295
  15470 WAT        14.6590   15.3440    8.8410 O      15470 WAT       0.1301
  15471 WAT        14.6590   15.3440    9.0910 O      15471 WAT       0.0986
  15472 WAT        14.6590   15.3440    9.3410 O      15472 WAT       0.0571
  15473 WAT        14.6590   15.5940    6.3410 O      15473 WAT       0.0468
  15474 WAT        14.6590   15.5940    8.3410 O      15474 WAT       0.0660
  15475 WAT        14.6590   15.5940    8.5910 O      15475 WAT       0.0876
  15476 WAT        14.6590   15.5940    8.8410 O      15476 WAT       0.0877
  15477 WAT        14.6590   15.5940    9.0910 O      15477 WAT       0.0677
  15478 WAT        14.6590   15.8440    6.3410 O      15478 WAT       0.0457
  15479 WAT        14.6590   15.8440    8.5910 O      15479 WAT       0.0450
  15480 WAT        14.6590   15.8440    8.8410 O      15480 WAT       0.0462
  15481 WAT        14.6590   17.0940    4.8410 O      15481 WAT       0.0470
  15482 WAT        14.6590   17.0940    5.0910 O      15482 WAT       0.0467
  15483 WAT        14.6590   17.3440    4.5910 O      15483 WAT       0.0485
  15484 WAT        14.6590   17.3440    4.8410 O      15484 WAT       0.0536
  15485 WAT        14.6590   17.3440    5.0910 O      15485 WAT       0.0506
  15486 WAT        14.6590   17.5940    4.3410 O      15486 WAT       0.0460
  15487 WAT        14.6590   17.5940    4.5910 O      15487 WAT       0.0537
  15488 WAT        14.6590   17.5940    4.8410 O      15488 WAT       0.0559
  15489 WAT        14.6590   17.5940    5.0910 O      15489 WAT       0.0489
  15490 WAT        14.6590   17.8440    4.3410 O      15490 WAT       0.0502
  15491 WAT        14.6590   17.8440    4.5910 O      15491 WAT       0.0538
  15492 WAT        14.6590   17.8440    4.8410 O      15492 WAT       0.0507
  15493 WAT        14.6590   18.0940    4.0910 O      15493 WAT       0.0464
  15494 WAT        14.6590   18.0940    4.3410 O      15494 WAT       0.0495
  15495 WAT        14.6590   18.0940    4.5910 O      15495 WAT       0.0475
  15496 WAT        14.6590   20.3440    3.5910 O      15496 WAT       0.0479
  15497 WAT        14.6590   20.5940    3.3410 O      15497 WAT       0.0677
  15498 WAT        14.6590   20.5940    3.5910 O      15498 WAT       0.0761
  15499 WAT        14.6590   20.5940    3.8410 O      15499 WAT       0.0596
  15500 WAT        14.6590   20.8440    3.0910 O      15500 WAT       0.0608
  15501 WAT        14.6590   20.8440    3.3410 O      15501 WAT       0.0942
  15502 WAT        14.6590   20.8440    3.5910 O      15502 WAT       0.1003
  15503 WAT        14.6590   20.8440    3.8410 O      15503 WAT       0.0721
  15504 WAT        14.6590   21.0940    3.0910 O      15504 WAT       0.0685
  15505 WAT        14.6590   21.0940    3.3410 O      15505 WAT       0.1037
  15506 WAT        14.6590   21.0940    3.5910 O      15506 WAT       0.1048
  15507 WAT        14.6590   21.0940    3.8410 O      15507 WAT       0.0699
  15508 WAT        14.6590   21.3440    3.0910 O      15508 WAT       0.0596
  15509 WAT        14.6590   21.3440    3.3410 O      15509 WAT       0.0878
  15510 WAT        14.6590   21.3440    3.5910 O      15510 WAT       0.0848
  15511 WAT        14.6590   21.3440    3.8410 O      15511 WAT       0.0533
  15512 WAT        14.6590   21.5940    3.3410 O      15512 WAT       0.0560
  15513 WAT        14.6590   21.5940    3.5910 O      15513 WAT       0.0524
  15514 WAT        14.9090    8.8440   11.5910 O      15514 WAT       0.0465
  15515 WAT        14.9090    8.8440   11.8410 O      15515 WAT       0.0486
  15516 WAT        14.9090    9.0940   11.5910 O      15516 WAT       0.0525
  15517 WAT        14.9090    9.0940   11.8410 O      15517 WAT       0.0563
  15518 WAT        14.9090    9.0940   12.0910 O      15518 WAT       0.0506
  15519 WAT        14.9090    9.3440   11.5910 O      15519 WAT       0.0515
  15520 WAT        14.9090    9.3440   11.8410 O      15520 WAT       0.0539
  15521 WAT        14.9090    9.3440   12.0910 O      15521 WAT       0.0475
  15522 WAT        14.9090   14.5940    8.5910 O      15522 WAT       0.0672
  15523 WAT        14.9090   14.5940    8.8410 O      15523 WAT       0.0815
  15524 WAT        14.9090   14.5940    9.0910 O      15524 WAT       0.0713
  15525 WAT        14.9090   14.5940    9.3410 O      15525 WAT       0.0452
  15526 WAT        14.9090   14.8440    8.3410 O      15526 WAT       0.0635
  15527 WAT        14.9090   14.8440    8.5910 O      15527 WAT       0.1042
  15528 WAT        14.9090   14.8440    8.8410 O      15528 WAT       0.1272
  15529 WAT        14.9090   14.8440    9.0910 O      15529 WAT       0.1157
  15530 WAT        14.9090   14.8440    9.3410 O      15530 WAT       0.0791
  15531 WAT        14.9090   15.0940    8.3410 O      15531 WAT       0.0794
  15532 WAT        14.9090   15.0940    8.5910 O      15532 WAT       0.1287
  15533 WAT        14.9090   15.0940    8.8410 O      15533 WAT       0.1590
  15534 WAT        14.9090   15.0940    9.0910 O      15534 WAT       0.1508
  15535 WAT        14.9090   15.0940    9.3410 O      15535 WAT       0.1098
  15536 WAT        14.9090   15.0940    9.5910 O      15536 WAT       0.0601
  15537 WAT        14.9090   15.3440    8.3410 O      15537 WAT       0.0791
  15538 WAT        14.9090   15.3440    8.5910 O      15538 WAT       0.1284
  15539 WAT        14.9090   15.3440    8.8410 O      15539 WAT       0.1621
  15540 WAT        14.9090   15.3440    9.0910 O      15540 WAT       0.1594
  15541 WAT        14.9090   15.3440    9.3410 O      15541 WAT       0.1201
  15542 WAT        14.9090   15.3440    9.5910 O      15542 WAT       0.0672
  15543 WAT        14.9090   15.5940    6.3410 O      15543 WAT       0.0473
  15544 WAT        14.9090   15.5940    8.3410 O      15544 WAT       0.0613
  15545 WAT        14.9090   15.5940    8.5910 O      15545 WAT       0.1019
  15546 WAT        14.9090   15.5940    8.8410 O      15546 WAT       0.1328
  15547 WAT        14.9090   15.5940    9.0910 O      15547 WAT       0.1339
  15548 WAT        14.9090   15.5940    9.3410 O      15548 WAT       0.1015
  15549 WAT        14.9090   15.5940    9.5910 O      15549 WAT       0.0559
  15550 WAT        14.9090   15.8440    6.0910 O      15550 WAT       0.0457
  15551 WAT        14.9090   15.8440    6.3410 O      15551 WAT       0.0491
  15552 WAT        14.9090   15.8440    8.5910 O      15552 WAT       0.0619
  15553 WAT        14.9090   15.8440    8.8410 O      15553 WAT       0.0839
  15554 WAT        14.9090   15.8440    9.0910 O      15554 WAT       0.0860
  15555 WAT        14.9090   15.8440    9.3410 O      15555 WAT       0.0644
  15556 WAT        14.9090   17.3440    4.8410 O      15556 WAT       0.0489
  15557 WAT        14.9090   17.3440    5.0910 O      15557 WAT       0.0474
  15558 WAT        14.9090   17.5940    4.5910 O      15558 WAT       0.0491
  15559 WAT        14.9090   17.5940    4.8410 O      15559 WAT       0.0517
  15560 WAT        14.9090   17.5940    5.0910 O      15560 WAT       0.0467
  15561 WAT        14.9090   17.8440    4.3410 O      15561 WAT       0.0483
  15562 WAT        14.9090   17.8440    4.5910 O      15562 WAT       0.0515
  15563 WAT        14.9090   17.8440    4.8410 O      15563 WAT       0.0492
  15564 WAT        14.9090   18.0940    4.0910 O      15564 WAT       0.0472
  15565 WAT        14.9090   18.0940    4.3410 O      15565 WAT       0.0502
  15566 WAT        14.9090   18.0940    4.5910 O      15566 WAT       0.0484
  15567 WAT        14.9090   18.3440    4.0910 O      15567 WAT       0.0464
  15568 WAT        14.9090   18.3440    4.3410 O      15568 WAT       0.0458
  15569 WAT        14.9090   20.3440    3.3410 O      15569 WAT       0.0591
  15570 WAT        14.9090   20.3440    3.5910 O      15570 WAT       0.0677
  15571 WAT        14.9090   20.3440    3.8410 O      15571 WAT       0.0552
  15572 WAT        14.9090   20.5940    3.0910 O      15572 WAT       0.0631
  15573 WAT        14.9090   20.5940    3.3410 O      15573 WAT       0.0973
  15574 WAT        14.9090   20.5940    3.5910 O      15574 WAT       0.1055
  15575 WAT        14.9090   20.5940    3.8410 O      15575 WAT       0.0782
  15576 WAT        14.9090   20.8440    3.0910 O      15576 WAT       0.0873
  15577 WAT        14.9090   20.8440    3.3410 O      15577 WAT       0.1321
  15578 WAT        14.9090   20.8440    3.5910 O      15578 WAT       0.1351
  15579 WAT        14.9090   20.8440    3.8410 O      15579 WAT       0.0919
  15580 WAT        14.9090   21.0940    2.8410 O      15580 WAT       0.0452
  15581 WAT        14.9090   21.0940    3.0910 O      15581 WAT       0.0968
  15582 WAT        14.9090   21.0940    3.3410 O      15582 WAT       0.1419
  15583 WAT        14.9090   21.0940    3.5910 O      15583 WAT       0.1373
  15584 WAT        14.9090   21.0940    3.8410 O      15584 WAT       0.0868
  15585 WAT        14.9090   21.3440    3.0910 O      15585 WAT       0.0828
  15586 WAT        14.9090   21.3440    3.3410 O      15586 WAT       0.1173
  15587 WAT        14.9090   21.3440    3.5910 O      15587 WAT       0.1081
  15588 WAT        14.9090   21.3440    3.8410 O      15588 WAT       0.0641
  15589 WAT        14.9090   21.5940    3.0910 O      15589 WAT       0.0531
  15590 WAT        14.9090   21.5940    3.3410 O      15590 WAT       0.0730
  15591 WAT        14.9090   21.5940    3.5910 O      15591 WAT       0.0646
  15592 WAT        15.1590    8.8440   11.5910 O      15592 WAT       0.0457
  15593 WAT        15.1590   14.5940    8.8410 O      15593 WAT       0.0535
  15594 WAT        15.1590   14.5940    9.0910 O      15594 WAT       0.0566
  15595 WAT        15.1590   14.5940    9.3410 O      15595 WAT       0.0456
  15596 WAT        15.1590   14.8440    8.5910 O      15596 WAT       0.0698
  15597 WAT        15.1590   14.8440    8.8410 O      15597 WAT       0.1024
  15598 WAT        15.1590   14.8440    9.0910 O      15598 WAT       0.1166
  15599 WAT        15.1590   14.8440    9.3410 O      15599 WAT       0.1013
  15600 WAT        15.1590   14.8440    9.5910 O      15600 WAT       0.0657
  15601 WAT        15.1590   15.0940    8.3410 O      15601 WAT       0.0531
  15602 WAT        15.1590   15.0940    8.5910 O      15602 WAT       0.1027
  15603 WAT        15.1590   15.0940    8.8410 O      15603 WAT       0.1576
  15604 WAT        15.1590   15.0940    9.0910 O      15604 WAT       0.1879
  15605 WAT        15.1590   15.0940    9.3410 O      15605 WAT       0.1691
  15606 WAT        15.1590   15.0940    9.5910 O      15606 WAT       0.1116
  15607 WAT        15.1590   15.0940    9.8410 O      15607 WAT       0.0528
  15608 WAT        15.1590   15.3440    8.3410 O      15608 WAT       0.0611
  15609 WAT        15.1590   15.3440    8.5910 O      15609 WAT       0.1223
  15610 WAT        15.1590   15.3440    8.8410 O      15610 WAT       0.1935
  15611 WAT        15.1590   15.3440    9.0910 O      15611 WAT       0.2346
  15612 WAT        15.1590   15.3440    9.3410 O      15612 WAT       0.2108
  15613 WAT        15.1590   15.3440    9.5910 O      15613 WAT       0.1367
  15614 WAT        15.1590   15.3440    9.8410 O      15614 WAT       0.0630
  15615 WAT        15.1590   15.5940    6.3410 O      15615 WAT       0.0481
  15616 WAT        15.1590   15.5940    8.3410 O      15616 WAT       0.0550
  15617 WAT        15.1590   15.5940    8.5910 O      15617 WAT       0.1143
  15618 WAT        15.1590   15.5940    8.8410 O      15618 WAT       0.1845
  15619 WAT        15.1590   15.5940    9.0910 O      15619 WAT       0.2227
  15620 WAT        15.1590   15.5940    9.3410 O      15620 WAT       0.1949
  15621 WAT        15.1590   15.5940    9.5910 O      15621 WAT       0.1213
  15622 WAT        15.1590   15.5940    9.8410 O      15622 WAT       0.0532
  15623 WAT        15.1590   15.8440    6.0910 O      15623 WAT       0.0481
  15624 WAT        15.1590   15.8440    6.3410 O      15624 WAT       0.0533
  15625 WAT        15.1590   15.8440    6.5910 O      15625 WAT       0.0470
  15626 WAT        15.1590   15.8440    8.5910 O      15626 WAT       0.0804
  15627 WAT        15.1590   15.8440    8.8410 O      15627 WAT       0.1317
  15628 WAT        15.1590   15.8440    9.0910 O      15628 WAT       0.1570
  15629 WAT        15.1590   15.8440    9.3410 O      15629 WAT       0.1325
  15630 WAT        15.1590   15.8440    9.5910 O      15630 WAT       0.0781
  15631 WAT        15.1590   16.0940    6.0910 O      15631 WAT       0.0489
  15632 WAT        15.1590   16.0940    6.3410 O      15632 WAT       0.0503
  15633 WAT        15.1590   16.0940    8.8410 O      15633 WAT       0.0679
  15634 WAT        15.1590   16.0940    9.0910 O      15634 WAT       0.0799
  15635 WAT        15.1590   16.0940    9.3410 O      15635 WAT       0.0649
  15636 WAT        15.1590   17.5940    4.8410 O      15636 WAT       0.0456
  15637 WAT        15.1590   17.8440    4.5910 O      15637 WAT       0.0473
  15638 WAT        15.1590   17.8440    4.8410 O      15638 WAT       0.0460
  15639 WAT        15.1590   18.0940    4.0910 O      15639 WAT       0.0462
  15640 WAT        15.1590   18.0940    4.3410 O      15640 WAT       0.0491
  15641 WAT        15.1590   18.0940    4.5910 O      15641 WAT       0.0478
  15642 WAT        15.1590   18.3440    4.0910 O      15642 WAT       0.0477
  15643 WAT        15.1590   18.3440    4.3410 O      15643 WAT       0.0475
  15644 WAT        15.1590   20.0940    3.5910 O      15644 WAT       0.0500
  15645 WAT        15.1590   20.3440    3.0910 O      15645 WAT       0.0484
  15646 WAT        15.1590   20.3440    3.3410 O      15646 WAT       0.0758
  15647 WAT        15.1590   20.3440    3.5910 O      15647 WAT       0.0865
  15648 WAT        15.1590   20.3440    3.8410 O      15648 WAT       0.0695
  15649 WAT        15.1590   20.5940    3.0910 O      15649 WAT       0.0775
  15650 WAT        15.1590   20.5940    3.3410 O      15650 WAT       0.1199
  15651 WAT        15.1590   20.5940    3.5910 O      15651 WAT       0.1284
  15652 WAT        15.1590   20.5940    3.8410 O      15652 WAT       0.0933
  15653 WAT        15.1590   20.5940    4.0910 O      15653 WAT       0.0456
  15654 WAT        15.1590   20.8440    2.8410 O      15654 WAT       0.0490
  15655 WAT        15.1590   20.8440    3.0910 O      15655 WAT       0.1046
  15656 WAT        15.1590   20.8440    3.3410 O      15656 WAT       0.1565
  15657 WAT        15.1590   20.8440    3.5910 O      15657 WAT       0.1569
  15658 WAT        15.1590   20.8440    3.8410 O      15658 WAT       0.1041
  15659 WAT        15.1590   20.8440    4.0910 O      15659 WAT       0.0453
  15660 WAT        15.1590   21.0940    2.8410 O      15660 WAT       0.0542
  15661 WAT        15.1590   21.0940    3.0910 O      15661 WAT       0.1142
  15662 WAT        15.1590   21.0940    3.3410 O      15662 WAT       0.1634
  15663 WAT        15.1590   21.0940    3.5910 O      15663 WAT       0.1537
  15664 WAT        15.1590   21.0940    3.8410 O      15664 WAT       0.0941
  15665 WAT        15.1590   21.3440    2.8410 O      15665 WAT       0.0479
  15666 WAT        15.1590   21.3440    3.0910 O      15666 WAT       0.0978
  15667 WAT        15.1590   21.3440    3.3410 O      15667 WAT       0.1333
  15668 WAT        15.1590   21.3440    3.5910 O      15668 WAT       0.1184
  15669 WAT        15.1590   21.3440    3.8410 O      15669 WAT       0.0675
  15670 WAT        15.1590   21.5940    3.0910 O      15670 WAT       0.0640
  15671 WAT        15.1590   21.5940    3.3410 O      15671 WAT       0.0834
  15672 WAT        15.1590   21.5940    3.5910 O      15672 WAT       0.0703
  15673 WAT        15.4090    8.3440   11.3410 O      15673 WAT       0.0493
  15674 WAT        15.4090    8.3440   11.5910 O      15674 WAT       0.0500
  15675 WAT        15.4090    8.5940   11.3410 O      15675 WAT       0.0487
  15676 WAT        15.4090    8.5940   11.5910 O      15676 WAT       0.0507
  15677 WAT        15.4090    8.5940   11.8410 O      15677 WAT       0.0462
  15678 WAT        15.4090    8.8440   11.5910 O      15678 WAT       0.0464
  15679 WAT        15.4090   14.5940    9.0910 O      15679 WAT       0.0450
  15680 WAT        15.4090   14.8440    8.8410 O      15680 WAT       0.0799
  15681 WAT        15.4090   14.8440    9.0910 O      15681 WAT       0.1101
  15682 WAT        15.4090   14.8440    9.3410 O      15682 WAT       0.1136
  15683 WAT        15.4090   14.8440    9.5910 O      15683 WAT       0.0856
  15684 WAT        15.4090   14.8440    9.8410 O      15684 WAT       0.0463
  15685 WAT        15.4090   15.0940    8.5910 O      15685 WAT       0.0782
  15686 WAT        15.4090   15.0940    8.8410 O      15686 WAT       0.1436
  15687 WAT        15.4090   15.0940    9.0910 O      15687 WAT       0.2013
  15688 WAT        15.4090   15.0940    9.3410 O      15688 WAT       0.2079
  15689 WAT        15.4090   15.0940    9.5910 O      15689 WAT       0.1547
  15690 WAT        15.4090   15.0940    9.8410 O      15690 WAT       0.0821
  15691 WAT        15.4090   15.3440    8.3410 O      15691 WAT       0.0454
  15692 WAT        15.4090   15.3440    8.5910 O      15692 WAT       0.1072
  15693 WAT        15.4090   15.3440    8.8410 O      15693 WAT       0.1983
  15694 WAT        15.4090   15.3440    9.0910 O      15694 WAT       0.2748
  15695 WAT        15.4090   15.3440    9.3410 O      15695 WAT       0.2763
  15696 WAT        15.4090   15.3440    9.5910 O      15696 WAT       0.1983
  15697 WAT        15.4090   15.3440    9.8410 O      15697 WAT       0.1012
  15698 WAT        15.4090   15.5940    6.3410 O      15698 WAT       0.0485
  15699 WAT        15.4090   15.5940    6.5910 O      15699 WAT       0.0460
  15700 WAT        15.4090   15.5940    8.3410 O      15700 WAT       0.0470
  15701 WAT        15.4090   15.5940    8.5910 O      15701 WAT       0.1125
  15702 WAT        15.4090   15.5940    8.8410 O      15702 WAT       0.2066
  15703 WAT        15.4090   15.5940    9.0910 O      15703 WAT       0.2781
  15704 WAT        15.4090   15.5940    9.3410 O      15704 WAT       0.2675
  15705 WAT        15.4090   15.5940    9.5910 O      15705 WAT       0.1821
  15706 WAT        15.4090   15.5940    9.8410 O      15706 WAT       0.0877
  15707 WAT        15.4090   15.8440    6.0910 O      15707 WAT       0.0495
  15708 WAT        15.4090   15.8440    6.3410 O      15708 WAT       0.0567
  15709 WAT        15.4090   15.8440    6.5910 O      15709 WAT       0.0517
  15710 WAT        15.4090   15.8440    8.5910 O      15710 WAT       0.0873
  15711 WAT        15.4090   15.8440    8.8410 O      15711 WAT       0.1585
  15712 WAT        15.4090   15.8440    9.0910 O      15712 WAT       0.2063
  15713 WAT        15.4090   15.8440    9.3410 O      15713 WAT       0.1886
  15714 WAT        15.4090   15.8440    9.5910 O      15714 WAT       0.1205
  15715 WAT        15.4090   15.8440    9.8410 O      15715 WAT       0.0540
  15716 WAT        15.4090   16.0940    6.0910 O      15716 WAT       0.0524
  15717 WAT        15.4090   16.0940    6.3410 O      15717 WAT       0.0570
  15718 WAT        15.4090   16.0940    6.5910 O      15718 WAT       0.0494
  15719 WAT        15.4090   16.0940    8.5910 O      15719 WAT       0.0484
  15720 WAT        15.4090   16.0940    8.8410 O      15720 WAT       0.0871
  15721 WAT        15.4090   16.0940    9.0910 O      15721 WAT       0.1099
  15722 WAT        15.4090   16.0940    9.3410 O      15722 WAT       0.0956
  15723 WAT        15.4090   16.0940    9.5910 O      15723 WAT       0.0572
  15724 WAT        15.4090   16.3440    6.0910 O      15724 WAT       0.0471
  15725 WAT        15.4090   16.3440    6.3410 O      15725 WAT       0.0475
  15726 WAT        15.4090   18.0940    4.3410 O      15726 WAT       0.0462
  15727 WAT        15.4090   18.0940    4.5910 O      15727 WAT       0.0459
  15728 WAT        15.4090   18.3440    4.0910 O      15728 WAT       0.0473
  15729 WAT        15.4090   18.3440    4.3410 O      15729 WAT       0.0475
  15730 WAT        15.4090   20.0940    3.3410 O      15730 WAT       0.0501
  15731 WAT        15.4090   20.0940    3.5910 O      15731 WAT       0.0629
  15732 WAT        15.4090   20.0940    3.8410 O      15732 WAT       0.0581
  15733 WAT        15.4090   20.3440    3.0910 O      15733 WAT       0.0541
  15734 WAT        15.4090   20.3440    3.3410 O      15734 WAT       0.0880
  15735 WAT        15.4090   20.3440    3.5910 O      15735 WAT       0.1029
  15736 WAT        15.4090   20.3440    3.8410 O      15736 WAT       0.0845
  15737 WAT        15.4090   20.3440    4.0910 O      15737 WAT       0.0486
  15738 WAT        15.4090   20.5940    3.0910 O      15738 WAT       0.0833
  15739 WAT        15.4090   20.5940    3.3410 O      15739 WAT       0.1312
  15740 WAT        15.4090   20.5940    3.5910 O      15740 WAT       0.1424
  15741 WAT        15.4090   20.5940    3.8410 O      15741 WAT       0.1050
  15742 WAT        15.4090   20.5940    4.0910 O      15742 WAT       0.0524
  15743 WAT        15.4090   20.8440    2.8410 O      15743 WAT       0.0508
  15744 WAT        15.4090   20.8440    3.0910 O      15744 WAT       0.1087
  15745 WAT        15.4090   20.8440    3.3410 O      15745 WAT       0.1622
  15746 WAT        15.4090   20.8440    3.5910 O      15746 WAT       0.1627
  15747 WAT        15.4090   20.8440    3.8410 O      15747 WAT       0.1084
  15748 WAT        15.4090   20.8440    4.0910 O      15748 WAT       0.0476
  15749 WAT        15.4090   21.0940    2.8410 O      15749 WAT       0.0576
  15750 WAT        15.4090   21.0940    3.0910 O      15750 WAT       0.1178
  15751 WAT        15.4090   21.0940    3.3410 O      15751 WAT       0.1645
  15752 WAT        15.4090   21.0940    3.5910 O      15752 WAT       0.1523
  15753 WAT        15.4090   21.0940    3.8410 O      15753 WAT       0.0922
  15754 WAT        15.4090   21.3440    2.8410 O      15754 WAT       0.0537
  15755 WAT        15.4090   21.3440    3.0910 O      15755 WAT       0.1035
  15756 WAT        15.4090   21.3440    3.3410 O      15756 WAT       0.1350
  15757 WAT        15.4090   21.3440    3.5910 O      15757 WAT       0.1157
  15758 WAT        15.4090   21.3440    3.8410 O      15758 WAT       0.0642
  15759 WAT        15.4090   21.5940    3.0910 O      15759 WAT       0.0722
  15760 WAT        15.4090   21.5940    3.3410 O      15760 WAT       0.0883
  15761 WAT        15.4090   21.5940    3.5910 O      15761 WAT       0.0705
  15762 WAT        15.4090   21.8440    3.3410 O      15762 WAT       0.0450
  15763 WAT        15.6590    8.3440   11.0910 O      15763 WAT       0.0500
  15764 WAT        15.6590    8.3440   11.3410 O      15764 WAT       0.0577
  15765 WAT        15.6590    8.3440   11.5910 O      15765 WAT       0.0595
  15766 WAT        15.6590    8.3440   11.8410 O      15766 WAT       0.0523
  15767 WAT        15.6590    8.5940   11.0910 O      15767 WAT       0.0488
  15768 WAT        15.6590    8.5940   11.3410 O      15768 WAT       0.0555
  15769 WAT        15.6590    8.5940   11.5910 O      15769 WAT       0.0578
  15770 WAT        15.6590    8.5940   11.8410 O      15770 WAT       0.0523
  15771 WAT        15.6590    8.8440   11.3410 O      15771 WAT       0.0468
  15772 WAT        15.6590    8.8440   11.5910 O      15772 WAT       0.0485
  15773 WAT        15.6590   14.8440    8.8410 O      15773 WAT       0.0571
  15774 WAT        15.6590   14.8440    9.0910 O      15774 WAT       0.0873
  15775 WAT        15.6590   14.8440    9.3410 O      15775 WAT       0.0996
  15776 WAT        15.6590   14.8440    9.5910 O      15776 WAT       0.0826
  15777 WAT        15.6590   14.8440    9.8410 O      15777 WAT       0.0493
  15778 WAT        15.6590   15.0940    8.5910 O      15778 WAT       0.0546
  15779 WAT        15.6590   15.0940    8.8410 O      15779 WAT       0.1094
  15780 WAT        15.6590   15.0940    9.0910 O      15780 WAT       0.1676
  15781 WAT        15.6590   15.0940    9.3410 O      15781 WAT       0.1888
  15782 WAT        15.6590   15.0940    9.5910 O      15782 WAT       0.1532
  15783 WAT        15.6590   15.0940    9.8410 O      15783 WAT       0.0890
  15784 WAT        15.6590   15.3440    8.5910 O      15784 WAT       0.0801
  15785 WAT        15.6590   15.3440    8.8410 O      15785 WAT       0.1588
  15786 WAT        15.6590   15.3440    9.0910 O      15786 WAT       0.2373
  15787 WAT        15.6590   15.3440    9.3410 O      15787 WAT       0.2577
  15788 WAT        15.6590   15.3440    9.5910 O      15788 WAT       0.2004
  15789 WAT        15.6590   15.3440    9.8410 O      15789 WAT       0.1114
  15790 WAT        15.6590   15.5940    6.3410 O      15790 WAT       0.0478
  15791 WAT        15.6590   15.5940    6.5910 O      15791 WAT       0.0467
  15792 WAT        15.6590   15.5940    8.5910 O      15792 WAT       0.0891
  15793 WAT        15.6590   15.5940    8.8410 O      15793 WAT       0.1726
  15794 WAT        15.6590   15.5940    9.0910 O      15794 WAT       0.2477
  15795 WAT        15.6590   15.5940    9.3410 O      15795 WAT       0.2552
  15796 WAT        15.6590   15.5940    9.5910 O      15796 WAT       0.1871
  15797 WAT        15.6590   15.5940    9.8410 O      15797 WAT       0.0978
  15798 WAT        15.6590   15.8440    6.0910 O      15798 WAT       0.0491
  15799 WAT        15.6590   15.8440    6.3410 O      15799 WAT       0.0581
  15800 WAT        15.6590   15.8440    6.5910 O      15800 WAT       0.0553
  15801 WAT        15.6590   15.8440    8.5910 O      15801 WAT       0.0734
  15802 WAT        15.6590   15.8440    8.8410 O      15802 WAT       0.1379
  15803 WAT        15.6590   15.8440    9.0910 O      15803 WAT       0.1890
  15804 WAT        15.6590   15.8440    9.3410 O      15804 WAT       0.1834
  15805 WAT        15.6590   15.8440    9.5910 O      15805 WAT       0.1255
  15806 WAT        15.6590   15.8440    9.8410 O      15806 WAT       0.0608
  15807 WAT        15.6590   16.0940    6.0910 O      15807 WAT       0.0537
  15808 WAT        15.6590   16.0940    6.3410 O      15808 WAT       0.0614
  15809 WAT        15.6590   16.0940    6.5910 O      15809 WAT       0.0565
  15810 WAT        15.6590   16.0940    8.8410 O      15810 WAT       0.0790
  15811 WAT        15.6590   16.0940    9.0910 O      15811 WAT       0.1036
  15812 WAT        15.6590   16.0940    9.3410 O      15812 WAT       0.0948
  15813 WAT        15.6590   16.0940    9.5910 O      15813 WAT       0.0603
  15814 WAT        15.6590   16.3440    6.0910 O      15814 WAT       0.0500
  15815 WAT        15.6590   16.3440    6.3410 O      15815 WAT       0.0545
  15816 WAT        15.6590   16.3440    6.5910 O      15816 WAT       0.0481
  15817 WAT        15.6590   18.3440    4.0910 O      15817 WAT       0.0452
  15818 WAT        15.6590   18.3440    4.3410 O      15818 WAT       0.0459
  15819 WAT        15.6590   19.8440    3.8410 O      15819 WAT       0.0461
  15820 WAT        15.6590   20.0940    3.3410 O      15820 WAT       0.0576
  15821 WAT        15.6590   20.0940    3.5910 O      15821 WAT       0.0759
  15822 WAT        15.6590   20.0940    3.8410 O      15822 WAT       0.0733
  15823 WAT        15.6590   20.0940    4.0910 O      15823 WAT       0.0517
  15824 WAT        15.6590   20.3440    3.0910 O      15824 WAT       0.0563
  15825 WAT        15.6590   20.3440    3.3410 O      15825 WAT       0.0963
  15826 WAT        15.6590   20.3440    3.5910 O      15826 WAT       0.1181
  15827 WAT        15.6590   20.3440    3.8410 O      15827 WAT       0.1018
  15828 WAT        15.6590   20.3440    4.0910 O      15828 WAT       0.0617
  15829 WAT        15.6590   20.5940    3.0910 O      15829 WAT       0.0830
  15830 WAT        15.6590   20.5940    3.3410 O      15830 WAT       0.1350
  15831 WAT        15.6590   20.5940    3.5910 O      15831 WAT       0.1524
  15832 WAT        15.6590   20.5940    3.8410 O      15832 WAT       0.1179
  15833 WAT        15.6590   20.5940    4.0910 O      15833 WAT       0.0623
  15834 WAT        15.6590   20.8440    2.8410 O      15834 WAT       0.0491
  15835 WAT        15.6590   20.8440    3.0910 O      15835 WAT       0.1047
  15836 WAT        15.6590   20.8440    3.3410 O      15836 WAT       0.1577
  15837 WAT        15.6590   20.8440    3.5910 O      15837 WAT       0.1621
  15838 WAT        15.6590   20.8440    3.8410 O      15838 WAT       0.1123
  15839 WAT        15.6590   20.8440    4.0910 O      15839 WAT       0.0521
  15840 WAT        15.6590   21.0940    2.8410 O      15840 WAT       0.0576
  15841 WAT        15.6590   21.0940    3.0910 O      15841 WAT       0.1136
  15842 WAT        15.6590   21.0940    3.3410 O      15842 WAT       0.1558
  15843 WAT        15.6590   21.0940    3.5910 O      15843 WAT       0.1443
  15844 WAT        15.6590   21.0940    3.8410 O      15844 WAT       0.0891
  15845 WAT        15.6590   21.3440    2.8410 O      15845 WAT       0.0581
  15846 WAT        15.6590   21.3440    3.0910 O      15846 WAT       0.1051
  15847 WAT        15.6590   21.3440    3.3410 O      15847 WAT       0.1312
  15848 WAT        15.6590   21.3440    3.5910 O      15848 WAT       0.1095
  15849 WAT        15.6590   21.3440    3.8410 O      15849 WAT       0.0602
  15850 WAT        15.6590   21.5940    2.8410 O      15850 WAT       0.0482
  15851 WAT        15.6590   21.5940    3.0910 O      15851 WAT       0.0811
  15852 WAT        15.6590   21.5940    3.3410 O      15852 WAT       0.0932
  15853 WAT        15.6590   21.5940    3.5910 O      15853 WAT       0.0709
  15854 WAT        15.6590   21.8440    3.0910 O      15854 WAT       0.0502
  15855 WAT        15.6590   21.8440    3.3410 O      15855 WAT       0.0543
  15856 WAT        15.9090    8.3440   11.0910 O      15856 WAT       0.0548
  15857 WAT        15.9090    8.3440   11.3410 O      15857 WAT       0.0642
  15858 WAT        15.9090    8.3440   11.5910 O      15858 WAT       0.0671
  15859 WAT        15.9090    8.3440   11.8410 O      15859 WAT       0.0600
  15860 WAT        15.9090    8.5940   11.0910 O      15860 WAT       0.0536
  15861 WAT        15.9090    8.5940   11.3410 O      15861 WAT       0.0614
  15862 WAT        15.9090    8.5940   11.5910 O      15862 WAT       0.0639
  15863 WAT        15.9090    8.5940   11.8410 O      15863 WAT       0.0579
  15864 WAT        15.9090    8.8440   11.0910 O      15864 WAT       0.0457
  15865 WAT        15.9090    8.8440   11.3410 O      15865 WAT       0.0503
  15866 WAT        15.9090    8.8440   11.5910 O      15866 WAT       0.0512
  15867 WAT        15.9090    8.8440   11.8410 O      15867 WAT       0.0461
  15868 WAT        15.9090   12.5940    8.0910 O      15868 WAT       0.0451
  15869 WAT        15.9090   12.8440    8.0910 O      15869 WAT       0.0480
  15870 WAT        15.9090   14.8440    9.0910 O      15870 WAT       0.0573
  15871 WAT        15.9090   14.8440    9.3410 O      15871 WAT       0.0671
  15872 WAT        15.9090   14.8440    9.5910 O      15872 WAT       0.0586
  15873 WAT        15.9090   15.0940    8.8410 O      15873 WAT       0.0687
  15874 WAT        15.9090   15.0940    9.0910 O      15874 WAT       0.1060
  15875 WAT        15.9090   15.0940    9.3410 O      15875 WAT       0.1246
  15876 WAT        15.9090   15.0940    9.5910 O      15876 WAT       0.1075
  15877 WAT        15.9090   15.0940    9.8410 O      15877 WAT       0.0674
  15878 WAT        15.9090   15.3440    8.5910 O      15878 WAT       0.0512
  15879 WAT        15.9090   15.3440    8.8410 O      15879 WAT       0.0977
  15880 WAT        15.9090   15.3440    9.0910 O      15880 WAT       0.1487
  15881 WAT        15.9090   15.3440    9.3410 O      15881 WAT       0.1695
  15882 WAT        15.9090   15.3440    9.5910 O      15882 WAT       0.1405
  15883 WAT        15.9090   15.3440    9.8410 O      15883 WAT       0.0843
  15884 WAT        15.9090   15.5940    6.3410 O      15884 WAT       0.0459
  15885 WAT        15.9090   15.5940    6.5910 O      15885 WAT       0.0467
  15886 WAT        15.9090   15.5940    8.5910 O      15886 WAT       0.0573
  15887 WAT        15.9090   15.5940    8.8410 O      15887 WAT       0.1064
  15888 WAT        15.9090   15.5940    9.0910 O      15888 WAT       0.1558
  15889 WAT        15.9090   15.5940    9.3410 O      15889 WAT       0.1682
  15890 WAT        15.9090   15.5940    9.5910 O      15890 WAT       0.1314
  15891 WAT        15.9090   15.5940    9.8410 O      15891 WAT       0.0741
  15892 WAT        15.9090   15.8440    6.0910 O      15892 WAT       0.0466
  15893 WAT        15.9090   15.8440    6.3410 O      15893 WAT       0.0572
  15894 WAT        15.9090   15.8440    6.5910 O      15894 WAT       0.0572
  15895 WAT        15.9090   15.8440    6.8410 O      15895 WAT       0.0451
  15896 WAT        15.9090   15.8440    8.5910 O      15896 WAT       0.0488
  15897 WAT        15.9090   15.8440    8.8410 O      15897 WAT       0.0866
  15898 WAT        15.9090   15.8440    9.0910 O      15898 WAT       0.1201
  15899 WAT        15.9090   15.8440    9.3410 O      15899 WAT       0.1216
  15900 WAT        15.9090   15.8440    9.5910 O      15900 WAT       0.0882
  15901 WAT        15.9090   15.8440    9.8410 O      15901 WAT       0.0460
  15902 WAT        15.9090   16.0940    6.0910 O      15902 WAT       0.0520
  15903 WAT        15.9090   16.0940    6.3410 O      15903 WAT       0.0625
  15904 WAT        15.9090   16.0940    6.5910 O      15904 WAT       0.0611
  15905 WAT        15.9090   16.0940    6.8410 O      15905 WAT       0.0472
  15906 WAT        15.9090   16.0940    8.8410 O      15906 WAT       0.0512
  15907 WAT        15.9090   16.0940    9.0910 O      15907 WAT       0.0670
  15908 WAT        15.9090   16.0940    9.3410 O      15908 WAT       0.0633
  15909 WAT        15.9090   16.3440    6.0910 O      15909 WAT       0.0500
  15910 WAT        15.9090   16.3440    6.3410 O      15910 WAT       0.0582
  15911 WAT        15.9090   16.3440    6.5910 O      15911 WAT       0.0555
  15912 WAT        15.9090   16.5940    6.3410 O      15912 WAT       0.0457
  15913 WAT        15.9090   19.8440    3.5910 O      15913 WAT       0.0493
  15914 WAT        15.9090   19.8440    3.8410 O      15914 WAT       0.0551
  15915 WAT        15.9090   19.8440    4.0910 O      15915 WAT       0.0468
  15916 WAT        15.9090   20.0940    3.3410 O      15916 WAT       0.0627
  15917 WAT        15.9090   20.0940    3.5910 O      15917 WAT       0.0870
  15918 WAT        15.9090   20.0940    3.8410 O      15918 WAT       0.0879
  15919 WAT        15.9090   20.0940    4.0910 O      15919 WAT       0.0643
  15920 WAT        15.9090   20.3440    3.0910 O      15920 WAT       0.0561
  15921 WAT        15.9090   20.3440    3.3410 O      15921 WAT       0.1013
  15922 WAT        15.9090   20.3440    3.5910 O      15922 WAT       0.1312
  15923 WAT        15.9090   20.3440    3.8410 O      15923 WAT       0.1197
  15924 WAT        15.9090   20.3440    4.0910 O      15924 WAT       0.0766
  15925 WAT        15.9090   20.5940    3.0910 O      15925 WAT       0.0802
  15926 WAT        15.9090   20.5940    3.3410 O      15926 WAT       0.1359
  15927 WAT        15.9090   20.5940    3.5910 O      15927 WAT       0.1619
  15928 WAT        15.9090   20.5940    3.8410 O      15928 WAT       0.1334
  15929 WAT        15.9090   20.5940    4.0910 O      15929 WAT       0.0756
  15930 WAT        15.9090   20.8440    2.8410 O      15930 WAT       0.0463
  15931 WAT        15.9090   20.8440    3.0910 O      15931 WAT       0.0989
  15932 WAT        15.9090   20.8440    3.3410 O      15932 WAT       0.1524
  15933 WAT        15.9090   20.8440    3.5910 O      15933 WAT       0.1637
  15934 WAT        15.9090   20.8440    3.8410 O      15934 WAT       0.1207
  15935 WAT        15.9090   20.8440    4.0910 O      15935 WAT       0.0605
  15936 WAT        15.9090   21.0940    2.8410 O      15936 WAT       0.0563
  15937 WAT        15.9090   21.0940    3.0910 O      15937 WAT       0.1081
  15938 WAT        15.9090   21.0940    3.3410 O      15938 WAT       0.1481
  15939 WAT        15.9090   21.0940    3.5910 O      15939 WAT       0.1405
  15940 WAT        15.9090   21.0940    3.8410 O      15940 WAT       0.0910
  15941 WAT        15.9090   21.3440    2.8410 O      15941 WAT       0.0611
  15942 WAT        15.9090   21.3440    3.0910 O      15942 WAT       0.1057
  15943 WAT        15.9090   21.3440    3.3410 O      15943 WAT       0.1289
  15944 WAT        15.9090   21.3440    3.5910 O      15944 WAT       0.1075
  15945 WAT        15.9090   21.3440    3.8410 O      15945 WAT       0.0604
  15946 WAT        15.9090   21.5940    2.8410 O      15946 WAT       0.0564
  15947 WAT        15.9090   21.5940    3.0910 O      15947 WAT       0.0901
  15948 WAT        15.9090   21.5940    3.3410 O      15948 WAT       0.0999
  15949 WAT        15.9090   21.5940    3.5910 O      15949 WAT       0.0746
  15950 WAT        15.9090   21.8440    3.0910 O      15950 WAT       0.0635
  15951 WAT        15.9090   21.8440    3.3410 O      15951 WAT       0.0661
  15952 WAT        15.9090   21.8440    3.5910 O      15952 WAT       0.0457
  15953 WAT        16.1590    8.3440   11.0910 O      15953 WAT       0.0559
  15954 WAT        16.1590    8.3440   11.3410 O      15954 WAT       0.0662
  15955 WAT        16.1590    8.3440   11.5910 O      15955 WAT       0.0701
  15956 WAT        16.1590    8.3440   11.8410 O      15956 WAT       0.0639
  15957 WAT        16.1590    8.3440   12.0910 O      15957 WAT       0.0486
  15958 WAT        16.1590    8.5940   10.8410 O      15958 WAT       0.0453
  15959 WAT        16.1590    8.5940   11.0910 O      15959 WAT       0.0557
  15960 WAT        16.1590    8.5940   11.3410 O      15960 WAT       0.0640
  15961 WAT        16.1590    8.5940   11.5910 O      15961 WAT       0.0666
  15962 WAT        16.1590    8.5940   11.8410 O      15962 WAT       0.0605
  15963 WAT        16.1590    8.5940   12.0910 O      15963 WAT       0.0460
  15964 WAT        16.1590    8.8440   11.0910 O      15964 WAT       0.0481
  15965 WAT        16.1590    8.8440   11.3410 O      15965 WAT       0.0527
  15966 WAT        16.1590    8.8440   11.5910 O      15966 WAT       0.0529
  15967 WAT        16.1590    8.8440   11.8410 O      15967 WAT       0.0467
  15968 WAT        16.1590   12.8440    8.0910 O      15968 WAT       0.0493
  15969 WAT        16.1590   12.8440    8.3410 O      15969 WAT       0.0457
  15970 WAT        16.1590   13.0940    8.0910 O      15970 WAT       0.0474
  15971 WAT        16.1590   15.0940    9.0910 O      15971 WAT       0.0569
  15972 WAT        16.1590   15.0940    9.3410 O      15972 WAT       0.0639
  15973 WAT        16.1590   15.0940    9.5910 O      15973 WAT       0.0561
  15974 WAT        16.1590   15.3440    8.8410 O      15974 WAT       0.0519
  15975 WAT        16.1590   15.3440    9.0910 O      15975 WAT       0.0719
  15976 WAT        16.1590   15.3440    9.3410 O      15976 WAT       0.0812
  15977 WAT        16.1590   15.3440    9.5910 O      15977 WAT       0.0698
  15978 WAT        16.1590   15.5940    6.5910 O      15978 WAT       0.0460
  15979 WAT        16.1590   15.5940    8.8410 O      15979 WAT       0.0528
  15980 WAT        16.1590   15.5940    9.0910 O      15980 WAT       0.0718
  15981 WAT        16.1590   15.5940    9.3410 O      15981 WAT       0.0781
  15982 WAT        16.1590   15.5940    9.5910 O      15982 WAT       0.0638
  15983 WAT        16.1590   15.8440    6.3410 O      15983 WAT       0.0537
  15984 WAT        16.1590   15.8440    6.5910 O      15984 WAT       0.0567
  15985 WAT        16.1590   15.8440    6.8410 O      15985 WAT       0.0477
  15986 WAT        16.1590   15.8440    9.0910 O      15986 WAT       0.0545
  15987 WAT        16.1590   15.8440    9.3410 O      15987 WAT       0.0556
  15988 WAT        16.1590   16.0940    6.0910 O      15988 WAT       0.0472
  15989 WAT        16.1590   16.0940    6.3410 O      15989 WAT       0.0594
  15990 WAT        16.1590   16.0940    6.5910 O      15990 WAT       0.0618
  15991 WAT        16.1590   16.0940    6.8410 O      15991 WAT       0.0516
  15992 WAT        16.1590   16.3440    6.0910 O      15992 WAT       0.0464
  15993 WAT        16.1590   16.3440    6.3410 O      15993 WAT       0.0569
  15994 WAT        16.1590   16.3440    6.5910 O      15994 WAT       0.0584
  15995 WAT        16.1590   16.3440    6.8410 O      15995 WAT       0.0485
  15996 WAT        16.1590   16.5940    6.3410 O      15996 WAT       0.0470
  15997 WAT        16.1590   16.5940    6.5910 O      15997 WAT       0.0472
  15998 WAT        16.1590   18.3440    4.8410 O      15998 WAT       0.0460
  15999 WAT        16.1590   19.8440    3.5910 O      15999 WAT       0.0526
  16000 WAT        16.1590   19.8440    3.8410 O      16000 WAT       0.0595
  16001 WAT        16.1590   19.8440    4.0910 O      16001 WAT       0.0512
  16002 WAT        16.1590   20.0940    3.3410 O      16002 WAT       0.0630
  16003 WAT        16.1590   20.0940    3.5910 O      16003 WAT       0.0908
  16004 WAT        16.1590   20.0940    3.8410 O      16004 WAT       0.0949
  16005 WAT        16.1590   20.0940    4.0910 O      16005 WAT       0.0713
  16006 WAT        16.1590   20.3440    3.0910 O      16006 WAT       0.0525
  16007 WAT        16.1590   20.3440    3.3410 O      16007 WAT       0.0991
  16008 WAT        16.1590   20.3440    3.5910 O      16008 WAT       0.1347
  16009 WAT        16.1590   20.3440    3.8410 O      16009 WAT       0.1288
  16010 WAT        16.1590   20.3440    4.0910 O      16010 WAT       0.0859
  16011 WAT        16.1590   20.5940    3.0910 O      16011 WAT       0.0736
  16012 WAT        16.1590   20.5940    3.3410 O      16012 WAT       0.1299
  16013 WAT        16.1590   20.5940    3.5910 O      16013 WAT       0.1628
  16014 WAT        16.1590   20.5940    3.8410 O      16014 WAT       0.1417
  16015 WAT        16.1590   20.5940    4.0910 O      16015 WAT       0.0848
  16016 WAT        16.1590   20.8440    3.0910 O      16016 WAT       0.0897
  16017 WAT        16.1590   20.8440    3.3410 O      16017 WAT       0.1426
  16018 WAT        16.1590   20.8440    3.5910 O      16018 WAT       0.1606
  16019 WAT        16.1590   20.8440    3.8410 O      16019 WAT       0.1254
  16020 WAT        16.1590   20.8440    4.0910 O      16020 WAT       0.0670
  16021 WAT        16.1590   21.0940    2.8410 O      16021 WAT       0.0515
  16022 WAT        16.1590   21.0940    3.0910 O      16022 WAT       0.0985
  16023 WAT        16.1590   21.0940    3.3410 O      16023 WAT       0.1375
  16024 WAT        16.1590   21.0940    3.5910 O      16024 WAT       0.1354
  16025 WAT        16.1590   21.0940    3.8410 O      16025 WAT       0.0925
  16026 WAT        16.1590   21.3440    2.8410 O      16026 WAT       0.0587
  16027 WAT        16.1590   21.3440    3.0910 O      16027 WAT       0.0999
  16028 WAT        16.1590   21.3440    3.3410 O      16028 WAT       0.1223
  16029 WAT        16.1590   21.3440    3.5910 O      16029 WAT       0.1043
  16030 WAT        16.1590   21.3440    3.8410 O      16030 WAT       0.0609
  16031 WAT        16.1590   21.5940    2.8410 O      16031 WAT       0.0588
  16032 WAT        16.1590   21.5940    3.0910 O      16032 WAT       0.0913
  16033 WAT        16.1590   21.5940    3.3410 O      16033 WAT       0.1007
  16034 WAT        16.1590   21.5940    3.5910 O      16034 WAT       0.0758
  16035 WAT        16.1590   21.8440    2.8410 O      16035 WAT       0.0491
  16036 WAT        16.1590   21.8440    3.0910 O      16036 WAT       0.0711
  16037 WAT        16.1590   21.8440    3.3410 O      16037 WAT       0.0730
  16038 WAT        16.1590   21.8440    3.5910 O      16038 WAT       0.0505
  16039 WAT        16.4090    8.3440   11.0910 O      16039 WAT       0.0524
  16040 WAT        16.4090    8.3440   11.3410 O      16040 WAT       0.0624
  16041 WAT        16.4090    8.3440   11.5910 O      16041 WAT       0.0669
  16042 WAT        16.4090    8.3440   11.8410 O      16042 WAT       0.0626
  16043 WAT        16.4090    8.3440   12.0910 O      16043 WAT       0.0495
  16044 WAT        16.4090    8.5940   11.0910 O      16044 WAT       0.0537
  16045 WAT        16.4090    8.5940   11.3410 O      16045 WAT       0.0619
  16046 WAT        16.4090    8.5940   11.5910 O      16046 WAT       0.0646
  16047 WAT        16.4090    8.5940   11.8410 O      16047 WAT       0.0591
  16048 WAT        16.4090    8.5940   12.0910 O      16048 WAT       0.0457
  16049 WAT        16.4090    8.8440   11.0910 O      16049 WAT       0.0481
  16050 WAT        16.4090    8.8440   11.3410 O      16050 WAT       0.0526
  16051 WAT        16.4090    8.8440   11.5910 O      16051 WAT       0.0522
  16052 WAT        16.4090    8.8440   11.8410 O      16052 WAT       0.0455
  16053 WAT        16.4090   12.8440    8.0910 O      16053 WAT       0.0480
  16054 WAT        16.4090   12.8440    8.3410 O      16054 WAT       0.0487
  16055 WAT        16.4090   13.0940    8.0910 O      16055 WAT       0.0488
  16056 WAT        16.4090   13.0940    8.3410 O      16056 WAT       0.0479
  16057 WAT        16.4090   15.8440    6.3410 O      16057 WAT       0.0478
  16058 WAT        16.4090   15.8440    6.5910 O      16058 WAT       0.0530
  16059 WAT        16.4090   15.8440    6.8410 O      16059 WAT       0.0476
  16060 WAT        16.4090   16.0940    6.3410 O      16060 WAT       0.0522
  16061 WAT        16.4090   16.0940    6.5910 O      16061 WAT       0.0576
  16062 WAT        16.4090   16.0940    6.8410 O      16062 WAT       0.0521
  16063 WAT        16.4090   16.3440    6.3410 O      16063 WAT       0.0506
  16064 WAT        16.4090   16.3440    6.5910 O      16064 WAT       0.0556
  16065 WAT        16.4090   16.3440    6.8410 O      16065 WAT       0.0510
  16066 WAT        16.4090   16.5940    6.5910 O      16066 WAT       0.0473
  16067 WAT        16.4090   18.0940    4.8410 O      16067 WAT       0.0456
  16068 WAT        16.4090   18.0940    5.0910 O      16068 WAT       0.0477
  16069 WAT        16.4090   18.0940    5.3410 O      16069 WAT       0.0469
  16070 WAT        16.4090   18.3440    4.5910 O      16070 WAT       0.0458
  16071 WAT        16.4090   18.3440    4.8410 O      16071 WAT       0.0494
  16072 WAT        16.4090   18.3440    5.0910 O      16072 WAT       0.0511
  16073 WAT        16.4090   18.3440    5.3410 O      16073 WAT       0.0497
  16074 WAT        16.4090   18.3440    5.5910 O      16074 WAT       0.0450
  16075 WAT        16.4090   18.5940    4.5910 O      16075 WAT       0.0451
  16076 WAT        16.4090   18.5940    4.8410 O      16076 WAT       0.0472
  16077 WAT        16.4090   18.5940    5.0910 O      16077 WAT       0.0473
  16078 WAT        16.4090   19.8440    3.5910 O      16078 WAT       0.0498
  16079 WAT        16.4090   19.8440    3.8410 O      16079 WAT       0.0560
  16080 WAT        16.4090   19.8440    4.0910 O      16080 WAT       0.0482
  16081 WAT        16.4090   20.0940    3.3410 O      16081 WAT       0.0556
  16082 WAT        16.4090   20.0940    3.5910 O      16082 WAT       0.0814
  16083 WAT        16.4090   20.0940    3.8410 O      16083 WAT       0.0865
  16084 WAT        16.4090   20.0940    4.0910 O      16084 WAT       0.0660
  16085 WAT        16.4090   20.3440    3.3410 O      16085 WAT       0.0839
  16086 WAT        16.4090   20.3440    3.5910 O      16086 WAT       0.1177
  16087 WAT        16.4090   20.3440    3.8410 O      16087 WAT       0.1161
  16088 WAT        16.4090   20.3440    4.0910 O      16088 WAT       0.0796
  16089 WAT        16.4090   20.5940    3.0910 O      16089 WAT       0.0591
  16090 WAT        16.4090   20.5940    3.3410 O      16090 WAT       0.1074
  16091 WAT        16.4090   20.5940    3.5910 O      16091 WAT       0.1397
  16092 WAT        16.4090   20.5940    3.8410 O      16092 WAT       0.1264
  16093 WAT        16.4090   20.5940    4.0910 O      16093 WAT       0.0784
  16094 WAT        16.4090   20.8440    3.0910 O      16094 WAT       0.0709
  16095 WAT        16.4090   20.8440    3.3410 O      16095 WAT       0.1161
  16096 WAT        16.4090   20.8440    3.5910 O      16096 WAT       0.1358
  16097 WAT        16.4090   20.8440    3.8410 O      16097 WAT       0.1105
  16098 WAT        16.4090   20.8440    4.0910 O      16098 WAT       0.0615
  16099 WAT        16.4090   21.0940    3.0910 O      16099 WAT       0.0775
  16100 WAT        16.4090   21.0940    3.3410 O      16100 WAT       0.1109
  16101 WAT        16.4090   21.0940    3.5910 O      16101 WAT       0.1130
  16102 WAT        16.4090   21.0940    3.8410 O      16102 WAT       0.0803
  16103 WAT        16.4090   21.3440    2.8410 O      16103 WAT       0.0473
  16104 WAT        16.4090   21.3440    3.0910 O      16104 WAT       0.0799
  16105 WAT        16.4090   21.3440    3.3410 O      16105 WAT       0.0992
  16106 WAT        16.4090   21.3440    3.5910 O      16106 WAT       0.0869
  16107 WAT        16.4090   21.3440    3.8410 O      16107 WAT       0.0526
  16108 WAT        16.4090   21.5940    2.8410 O      16108 WAT       0.0507
  16109 WAT        16.4090   21.5940    3.0910 O      16109 WAT       0.0765
  16110 WAT        16.4090   21.5940    3.3410 O      16110 WAT       0.0844
  16111 WAT        16.4090   21.5940    3.5910 O      16111 WAT       0.0646
  16112 WAT        16.4090   21.8440    2.8410 O      16112 WAT       0.0469
  16113 WAT        16.4090   21.8440    3.0910 O      16113 WAT       0.0644
  16114 WAT        16.4090   21.8440    3.3410 O      16114 WAT       0.0652
  16115 WAT        16.4090   21.8440    3.5910 O      16115 WAT       0.0454
  16116 WAT        16.4090   22.0940    3.0910 O      16116 WAT       0.0457
  16117 WAT        16.6590    8.3440   11.0910 O      16117 WAT       0.0455
  16118 WAT        16.6590    8.3440   11.3410 O      16118 WAT       0.0545
  16119 WAT        16.6590    8.3440   11.5910 O      16119 WAT       0.0593
  16120 WAT        16.6590    8.3440   11.8410 O      16120 WAT       0.0568
  16121 WAT        16.6590    8.3440   12.0910 O      16121 WAT       0.0468
  16122 WAT        16.6590    8.5940   11.0910 O      16122 WAT       0.0485
  16123 WAT        16.6590    8.5940   11.3410 O      16123 WAT       0.0559
  16124 WAT        16.6590    8.5940   11.5910 O      16124 WAT       0.0587
  16125 WAT        16.6590    8.5940   11.8410 O      16125 WAT       0.0541
  16126 WAT        16.6590    8.8440   11.0910 O      16126 WAT       0.0455
  16127 WAT        16.6590    8.8440   11.3410 O      16127 WAT       0.0497
  16128 WAT        16.6590    8.8440   11.5910 O      16128 WAT       0.0492
  16129 WAT        16.6590   12.8440    8.3410 O      16129 WAT       0.0491
  16130 WAT        16.6590   12.8440    8.5910 O      16130 WAT       0.0453
  16131 WAT        16.6590   13.0940    8.0910 O      16131 WAT       0.0477
  16132 WAT        16.6590   13.0940    8.3410 O      16132 WAT       0.0517
  16133 WAT        16.6590   13.0940    8.5910 O      16133 WAT       0.0468
  16134 WAT        16.6590   13.3440    8.3410 O      16134 WAT       0.0451
  16135 WAT        16.6590   14.3440    9.0910 O      16135 WAT       0.0491
  16136 WAT        16.6590   14.3440    9.3410 O      16136 WAT       0.0450
  16137 WAT        16.6590   14.5940    8.8410 O      16137 WAT       0.0529
  16138 WAT        16.6590   14.5940    9.0910 O      16138 WAT       0.0571
  16139 WAT        16.6590   14.5940    9.3410 O      16139 WAT       0.0497
  16140 WAT        16.6590   14.8440    8.8410 O      16140 WAT       0.0538
  16141 WAT        16.6590   14.8440    9.0910 O      16141 WAT       0.0531
  16142 WAT        16.6590   15.0940    8.8410 O      16142 WAT       0.0457
  16143 WAT        16.6590   15.8440    6.5910 O      16143 WAT       0.0460
  16144 WAT        16.6590   16.0940    6.5910 O      16144 WAT       0.0493
  16145 WAT        16.6590   16.0940    6.8410 O      16145 WAT       0.0483
  16146 WAT        16.6590   16.3440    6.5910 O      16146 WAT       0.0481
  16147 WAT        16.6590   16.3440    6.8410 O      16147 WAT       0.0487
  16148 WAT        16.6590   16.5940    6.8410 O      16148 WAT       0.0452
  16149 WAT        16.6590   17.8440    5.5910 O      16149 WAT       0.0458
  16150 WAT        16.6590   17.8440    5.8410 O      16150 WAT       0.0455
  16151 WAT        16.6590   18.0940    4.8410 O      16151 WAT       0.0470
  16152 WAT        16.6590   18.0940    5.0910 O      16152 WAT       0.0522
  16153 WAT        16.6590   18.0940    5.3410 O      16153 WAT       0.0568
  16154 WAT        16.6590   18.0940    5.5910 O      16154 WAT       0.0594
  16155 WAT        16.6590   18.0940    5.8410 O      16155 WAT       0.0573
  16156 WAT        16.6590   18.0940    6.0910 O      16156 WAT       0.0489
  16157 WAT        16.6590   18.3440    4.5910 O      16157 WAT       0.0476
  16158 WAT        16.6590   18.3440    4.8410 O      16158 WAT       0.0536
  16159 WAT        16.6590   18.3440    5.0910 O      16159 WAT       0.0596
  16160 WAT        16.6590   18.3440    5.3410 O      16160 WAT       0.0645
  16161 WAT        16.6590   18.3440    5.5910 O      16161 WAT       0.0660
  16162 WAT        16.6590   18.3440    5.8410 O      16162 WAT       0.0609
  16163 WAT        16.6590   18.3440    6.0910 O      16163 WAT       0.0485
  16164 WAT        16.6590   18.5940    4.3410 O      16164 WAT       0.0450
  16165 WAT        16.6590   18.5940    4.5910 O      16165 WAT       0.0487
  16166 WAT        16.6590   18.5940    4.8410 O      16166 WAT       0.0533
  16167 WAT        16.6590   18.5940    5.0910 O      16167 WAT       0.0576
  16168 WAT        16.6590   18.5940    5.3410 O      16168 WAT       0.0599
  16169 WAT        16.6590   18.5940    5.5910 O      16169 WAT       0.0584
  16170 WAT        16.6590   18.5940    5.8410 O      16170 WAT       0.0507
  16171 WAT        16.6590   18.8440    4.8410 O      16171 WAT       0.0458
  16172 WAT        16.6590   18.8440    5.0910 O      16172 WAT       0.0460
  16173 WAT        16.6590   20.0940    3.5910 O      16173 WAT       0.0595
  16174 WAT        16.6590   20.0940    3.8410 O      16174 WAT       0.0630
  16175 WAT        16.6590   20.0940    4.0910 O      16175 WAT       0.0484
  16176 WAT        16.6590   20.3440    3.3410 O      16176 WAT       0.0572
  16177 WAT        16.6590   20.3440    3.5910 O      16177 WAT       0.0810
  16178 WAT        16.6590   20.3440    3.8410 O      16178 WAT       0.0812
  16179 WAT        16.6590   20.3440    4.0910 O      16179 WAT       0.0567
  16180 WAT        16.6590   20.5940    3.3410 O      16180 WAT       0.0700
  16181 WAT        16.6590   20.5940    3.5910 O      16181 WAT       0.0931
  16182 WAT        16.6590   20.5940    3.8410 O      16182 WAT       0.0863
  16183 WAT        16.6590   20.5940    4.0910 O      16183 WAT       0.0548
  16184 WAT        16.6590   20.8440    3.3410 O      16184 WAT       0.0736
  16185 WAT        16.6590   20.8440    3.5910 O      16185 WAT       0.0884
  16186 WAT        16.6590   20.8440    3.8410 O      16186 WAT       0.0739
  16187 WAT        16.6590   21.0940    3.0910 O      16187 WAT       0.0474
  16188 WAT        16.6590   21.0940    3.3410 O      16188 WAT       0.0690
  16189 WAT        16.6590   21.0940    3.5910 O      16189 WAT       0.0721
  16190 WAT        16.6590   21.0940    3.8410 O      16190 WAT       0.0526
  16191 WAT        16.6590   21.3440    3.0910 O      16191 WAT       0.0490
  16192 WAT        16.6590   21.3440    3.3410 O      16192 WAT       0.0613
  16193 WAT        16.6590   21.3440    3.5910 O      16193 WAT       0.0547
  16194 WAT        16.6590   21.5940    3.0910 O      16194 WAT       0.0485
  16195 WAT        16.6590   21.5940    3.3410 O      16195 WAT       0.0531
  16196 WAT        16.9090    8.3440   11.3410 O      16196 WAT       0.0453
  16197 WAT        16.9090    8.3440   11.5910 O      16197 WAT       0.0500
  16198 WAT        16.9090    8.3440   11.8410 O      16198 WAT       0.0492
  16199 WAT        16.9090    8.5940   11.3410 O      16199 WAT       0.0487
  16200 WAT        16.9090    8.5940   11.5910 O      16200 WAT       0.0515
  16201 WAT        16.9090    8.5940   11.8410 O      16201 WAT       0.0480
  16202 WAT        16.9090    8.8440   11.3410 O      16202 WAT       0.0459
  16203 WAT        16.9090    8.8440   11.5910 O      16203 WAT       0.0453
  16204 WAT        16.9090   12.8440    8.3410 O      16204 WAT       0.0459
  16205 WAT        16.9090   12.8440    8.5910 O      16205 WAT       0.0470
  16206 WAT        16.9090   13.0940    8.3410 O      16206 WAT       0.0516
  16207 WAT        16.9090   13.0940    8.5910 O      16207 WAT       0.0522
  16208 WAT        16.9090   13.3440    8.3410 O      16208 WAT       0.0491
  16209 WAT        16.9090   13.3440    8.5910 O      16209 WAT       0.0488
  16210 WAT        16.9090   14.0940    9.0910 O      16210 WAT       0.0531
  16211 WAT        16.9090   14.0940    9.3410 O      16211 WAT       0.0534
  16212 WAT        16.9090   14.3440    8.8410 O      16212 WAT       0.0580
  16213 WAT        16.9090   14.3440    9.0910 O      16213 WAT       0.0703
  16214 WAT        16.9090   14.3440    9.3410 O      16214 WAT       0.0688
  16215 WAT        16.9090   14.3440    9.5910 O      16215 WAT       0.0543
  16216 WAT        16.9090   14.5940    8.5910 O      16216 WAT       0.0487
  16217 WAT        16.9090   14.5940    8.8410 O      16217 WAT       0.0679
  16218 WAT        16.9090   14.5940    9.0910 O      16218 WAT       0.0770
  16219 WAT        16.9090   14.5940    9.3410 O      16219 WAT       0.0708
  16220 WAT        16.9090   14.5940    9.5910 O      16220 WAT       0.0532
  16221 WAT        16.9090   14.8440    8.5910 O      16221 WAT       0.0528
  16222 WAT        16.9090   14.8440    8.8410 O      16222 WAT       0.0657
  16223 WAT        16.9090   14.8440    9.0910 O      16223 WAT       0.0672
  16224 WAT        16.9090   14.8440    9.3410 O      16224 WAT       0.0567
  16225 WAT        16.9090   15.0940    8.5910 O      16225 WAT       0.0490
  16226 WAT        16.9090   15.0940    8.8410 O      16226 WAT       0.0525
  16227 WAT        16.9090   15.0940    9.0910 O      16227 WAT       0.0470
  16228 WAT        16.9090   15.8440   10.8410 O      16228 WAT       0.0463
  16229 WAT        16.9090   16.0940   10.3410 O      16229 WAT       0.0485
  16230 WAT        16.9090   16.0940   10.5910 O      16230 WAT       0.0706
  16231 WAT        16.9090   16.0940   10.8410 O      16231 WAT       0.0737
  16232 WAT        16.9090   16.0940   11.0910 O      16232 WAT       0.0551
  16233 WAT        16.9090   16.3440    7.5910 O      16233 WAT       0.0452
  16234 WAT        16.9090   16.3440    7.8410 O      16234 WAT       0.0461
  16235 WAT        16.9090   16.3440   10.3410 O      16235 WAT       0.0753
  16236 WAT        16.9090   16.3440   10.5910 O      16236 WAT       0.0977
  16237 WAT        16.9090   16.3440   10.8410 O      16237 WAT       0.0900
  16238 WAT        16.9090   16.3440   11.0910 O      16238 WAT       0.0586
  16239 WAT        16.9090   16.5940    7.0910 O      16239 WAT       0.0465
  16240 WAT        16.9090   16.5940    7.3410 O      16240 WAT       0.0484
  16241 WAT        16.9090   16.5940    7.5910 O      16241 WAT       0.0488
  16242 WAT        16.9090   16.5940    7.8410 O      16242 WAT       0.0457
  16243 WAT        16.9090   16.5940   10.0910 O      16243 WAT       0.0583
  16244 WAT        16.9090   16.5940   10.3410 O      16244 WAT       0.0936
  16245 WAT        16.9090   16.5940   10.5910 O      16245 WAT       0.1066
  16246 WAT        16.9090   16.5940   10.8410 O      16246 WAT       0.0850
  16247 WAT        16.9090   16.5940   11.0910 O      16247 WAT       0.0475
  16248 WAT        16.9090   16.8440    7.0910 O      16248 WAT       0.0467
  16249 WAT        16.9090   16.8440    7.3410 O      16249 WAT       0.0485
  16250 WAT        16.9090   16.8440    7.5910 O      16250 WAT       0.0461
  16251 WAT        16.9090   16.8440   10.0910 O      16251 WAT       0.0649
  16252 WAT        16.9090   16.8440   10.3410 O      16252 WAT       0.0932
  16253 WAT        16.9090   16.8440   10.5910 O      16253 WAT       0.0927
  16254 WAT        16.9090   16.8440   10.8410 O      16254 WAT       0.0634
  16255 WAT        16.9090   17.0940   10.0910 O      16255 WAT       0.0563
  16256 WAT        16.9090   17.0940   10.3410 O      16256 WAT       0.0735
  16257 WAT        16.9090   17.0940   10.5910 O      16257 WAT       0.0646
  16258 WAT        16.9090   17.8440    5.3410 O      16258 WAT       0.0503
  16259 WAT        16.9090   17.8440    5.5910 O      16259 WAT       0.0580
  16260 WAT        16.9090   17.8440    5.8410 O      16260 WAT       0.0624
  16261 WAT        16.9090   17.8440    6.0910 O      16261 WAT       0.0604
  16262 WAT        16.9090   17.8440    6.3410 O      16262 WAT       0.0518
  16263 WAT        16.9090   18.0940    4.8410 O      16263 WAT       0.0493
  16264 WAT        16.9090   18.0940    5.0910 O      16264 WAT       0.0583
  16265 WAT        16.9090   18.0940    5.3410 O      16265 WAT       0.0689
  16266 WAT        16.9090   18.0940    5.5910 O      16266 WAT       0.0781
  16267 WAT        16.9090   18.0940    5.8410 O      16267 WAT       0.0807
  16268 WAT        16.9090   18.0940    6.0910 O      16268 WAT       0.0728
  16269 WAT        16.9090   18.0940    6.3410 O      16269 WAT       0.0566
  16270 WAT        16.9090   18.3440    4.5910 O      16270 WAT       0.0497
  16271 WAT        16.9090   18.3440    4.8410 O      16271 WAT       0.0580
  16272 WAT        16.9090   18.3440    5.0910 O      16272 WAT       0.0683
  16273 WAT        16.9090   18.3440    5.3410 O      16273 WAT       0.0791
  16274 WAT        16.9090   18.3440    5.5910 O      16274 WAT       0.0865
  16275 WAT        16.9090   18.3440    5.8410 O      16275 WAT       0.0845
  16276 WAT        16.9090   18.3440    6.0910 O      16276 WAT       0.0709
  16277 WAT        16.9090   18.3440    6.3410 O      16277 WAT       0.0501
  16278 WAT        16.9090   18.5940    4.3410 O      16278 WAT       0.0471
  16279 WAT        16.9090   18.5940    4.5910 O      16279 WAT       0.0517
  16280 WAT        16.9090   18.5940    4.8410 O      16280 WAT       0.0582
  16281 WAT        16.9090   18.5940    5.0910 O      16281 WAT       0.0658
  16282 WAT        16.9090   18.5940    5.3410 O      16282 WAT       0.0725
  16283 WAT        16.9090   18.5940    5.5910 O      16283 WAT       0.0748
  16284 WAT        16.9090   18.5940    5.8410 O      16284 WAT       0.0684
  16285 WAT        16.9090   18.5940    6.0910 O      16285 WAT       0.0531
  16286 WAT        16.9090   18.8440    3.3410 O      16286 WAT       0.0468
  16287 WAT        16.9090   18.8440    3.5910 O      16287 WAT       0.0480
  16288 WAT        16.9090   18.8440    3.8410 O      16288 WAT       0.0474
  16289 WAT        16.9090   18.8440    4.0910 O      16289 WAT       0.0463
  16290 WAT        16.9090   18.8440    4.3410 O      16290 WAT       0.0459
  16291 WAT        16.9090   18.8440    4.5910 O      16291 WAT       0.0468
  16292 WAT        16.9090   18.8440    4.8410 O      16292 WAT       0.0490
  16293 WAT        16.9090   18.8440    5.0910 O      16293 WAT       0.0511
  16294 WAT        16.9090   18.8440    5.3410 O      16294 WAT       0.0519
  16295 WAT        16.9090   18.8440    5.5910 O      16295 WAT       0.0492
  16296 WAT        16.9090   19.0940    3.3410 O      16296 WAT       0.0470
  16297 WAT        16.9090   19.0940    3.5910 O      16297 WAT       0.0476
  16298 WAT        16.9090   19.0940    3.8410 O      16298 WAT       0.0458
  16299 WAT        16.9090   20.5940    3.5910 O      16299 WAT       0.0452
  16300 WAT        17.1590    8.5940   11.5910 O      16300 WAT       0.0456
  16301 WAT        17.1590   13.0940    8.3410 O      16301 WAT       0.0469
  16302 WAT        17.1590   13.0940    8.5910 O      16302 WAT       0.0521
  16303 WAT        17.1590   13.0940    8.8410 O      16303 WAT       0.0502
  16304 WAT        17.1590   13.3440    8.3410 O      16304 WAT       0.0485
  16305 WAT        17.1590   13.3440    8.5910 O      16305 WAT       0.0531
  16306 WAT        17.1590   13.3440    8.8410 O      16306 WAT       0.0520
  16307 WAT        17.1590   13.3440    9.0910 O      16307 WAT       0.0460
  16308 WAT        17.1590   13.5940    8.5910 O      16308 WAT       0.0467
  16309 WAT        17.1590   13.5940    8.8410 O      16309 WAT       0.0484
  16310 WAT        17.1590   13.5940    9.0910 O      16310 WAT       0.0474
  16311 WAT        17.1590   13.8440    8.8410 O      16311 WAT       0.0469
  16312 WAT        17.1590   13.8440    9.0910 O      16312 WAT       0.0533
  16313 WAT        17.1590   13.8440    9.3410 O      16313 WAT       0.0539
  16314 WAT        17.1590   13.8440    9.5910 O      16314 WAT       0.0452
  16315 WAT        17.1590   14.0940    8.8410 O      16315 WAT       0.0534
  16316 WAT        17.1590   14.0940    9.0910 O      16316 WAT       0.0670
  16317 WAT        17.1590   14.0940    9.3410 O      16317 WAT       0.0705
  16318 WAT        17.1590   14.0940    9.5910 O      16318 WAT       0.0597
  16319 WAT        17.1590   14.3440    8.8410 O      16319 WAT       0.0649
  16320 WAT        17.1590   14.3440    9.0910 O      16320 WAT       0.0815
  16321 WAT        17.1590   14.3440    9.3410 O      16321 WAT       0.0834
  16322 WAT        17.1590   14.3440    9.5910 O      16322 WAT       0.0685
  16323 WAT        17.1590   14.5940    8.5910 O      16323 WAT       0.0502
  16324 WAT        17.1590   14.5940    8.8410 O      16324 WAT       0.0716
  16325 WAT        17.1590   14.5940    9.0910 O      16325 WAT       0.0842
  16326 WAT        17.1590   14.5940    9.3410 O      16326 WAT       0.0806
  16327 WAT        17.1590   14.5940    9.5910 O      16327 WAT       0.0627
  16328 WAT        17.1590   14.8440    8.5910 O      16328 WAT       0.0518
  16329 WAT        17.1590   14.8440    8.8410 O      16329 WAT       0.0664
  16330 WAT        17.1590   14.8440    9.0910 O      16330 WAT       0.0702
  16331 WAT        17.1590   14.8440    9.3410 O      16331 WAT       0.0611
  16332 WAT        17.1590   15.0940    8.5910 O      16332 WAT       0.0462
  16333 WAT        17.1590   15.0940    8.8410 O      16333 WAT       0.0509
  16334 WAT        17.1590   15.0940    9.0910 O      16334 WAT       0.0469
  16335 WAT        17.1590   15.8440   10.5910 O      16335 WAT       0.0654
  16336 WAT        17.1590   15.8440   10.8410 O      16336 WAT       0.0732
  16337 WAT        17.1590   15.8440   11.0910 O      16337 WAT       0.0593
  16338 WAT        17.1590   16.0940   10.0910 O      16338 WAT       0.0471
  16339 WAT        17.1590   16.0940   10.3410 O      16339 WAT       0.0895
  16340 WAT        17.1590   16.0940   10.5910 O      16340 WAT       0.1241
  16341 WAT        17.1590   16.0940   10.8410 O      16341 WAT       0.1238
  16342 WAT        17.1590   16.0940   11.0910 O      16342 WAT       0.0883
  16343 WAT        17.1590   16.0940   11.3410 O      16343 WAT       0.0452
  16344 WAT        17.1590   16.3440   10.0910 O      16344 WAT       0.0881
  16345 WAT        17.1590   16.3440   10.3410 O      16345 WAT       0.1504
  16346 WAT        17.1590   16.3440   10.5910 O      16346 WAT       0.1846
  16347 WAT        17.1590   16.3440   10.8410 O      16347 WAT       0.1612
  16348 WAT        17.1590   16.3440   11.0910 O      16348 WAT       0.0997
  16349 WAT        17.1590   16.5940    7.3410 O      16349 WAT       0.0473
  16350 WAT        17.1590   16.5940    7.5910 O      16350 WAT       0.0457
  16351 WAT        17.1590   16.5940    9.8410 O      16351 WAT       0.0619
  16352 WAT        17.1590   16.5940   10.0910 O      16352 WAT       0.1321
  16353 WAT        17.1590   16.5940   10.3410 O      16353 WAT       0.2016
  16354 WAT        17.1590   16.5940   10.5910 O      16354 WAT       0.2173
  16355 WAT        17.1590   16.5940   10.8410 O      16355 WAT       0.1643
  16356 WAT        17.1590   16.5940   11.0910 O      16356 WAT       0.0867
  16357 WAT        17.1590   16.8440    7.0910 O      16357 WAT       0.0486
  16358 WAT        17.1590   16.8440    7.3410 O      16358 WAT       0.0504
  16359 WAT        17.1590   16.8440    7.5910 O      16359 WAT       0.0461
  16360 WAT        17.1590   16.8440    9.8410 O      16360 WAT       0.0788
  16361 WAT        17.1590   16.8440   10.0910 O      16361 WAT       0.1561
  16362 WAT        17.1590   16.8440   10.3410 O      16362 WAT       0.2153
  16363 WAT        17.1590   16.8440   10.5910 O      16363 WAT       0.2048
  16364 WAT        17.1590   16.8440   10.8410 O      16364 WAT       0.1337
  16365 WAT        17.1590   16.8440   11.0910 O      16365 WAT       0.0595
  16366 WAT        17.1590   17.0940    7.0910 O      16366 WAT       0.0481
  16367 WAT        17.1590   17.0940    7.3410 O      16367 WAT       0.0469
  16368 WAT        17.1590   17.0940    9.8410 O      16368 WAT       0.0757
  16369 WAT        17.1590   17.0940   10.0910 O      16369 WAT       0.1419
  16370 WAT        17.1590   17.0940   10.3410 O      16370 WAT       0.1806
  16371 WAT        17.1590   17.0940   10.5910 O      16371 WAT       0.1542
  16372 WAT        17.1590   17.0940   10.8410 O      16372 WAT       0.0878
  16373 WAT        17.1590   17.3440    9.8410 O      16373 WAT       0.0536
  16374 WAT        17.1590   17.3440   10.0910 O      16374 WAT       0.0968
  16375 WAT        17.1590   17.3440   10.3410 O      16375 WAT       0.1159
  16376 WAT        17.1590   17.3440   10.5910 O      16376 WAT       0.0909
  16377 WAT        17.1590   17.3440   10.8410 O      16377 WAT       0.0459
  16378 WAT        17.1590   17.5940    5.5910 O      16378 WAT       0.0459
  16379 WAT        17.1590   17.5940    5.8410 O      16379 WAT       0.0524
  16380 WAT        17.1590   17.5940    6.0910 O      16380 WAT       0.0553
  16381 WAT        17.1590   17.5940    6.3410 O      16381 WAT       0.0539
  16382 WAT        17.1590   17.5940    6.5910 O      16382 WAT       0.0493
  16383 WAT        17.1590   17.5940   10.0910 O      16383 WAT       0.0483
  16384 WAT        17.1590   17.5940   10.3410 O      16384 WAT       0.0554
  16385 WAT        17.1590   17.8440    5.0910 O      16385 WAT       0.0474
  16386 WAT        17.1590   17.8440    5.3410 O      16386 WAT       0.0591
  16387 WAT        17.1590   17.8440    5.5910 O      16387 WAT       0.0707
  16388 WAT        17.1590   17.8440    5.8410 O      16388 WAT       0.0778
  16389 WAT        17.1590   17.8440    6.0910 O      16389 WAT       0.0766
  16390 WAT        17.1590   17.8440    6.3410 O      16390 WAT       0.0673
  16391 WAT        17.1590   17.8440    6.5910 O      16391 WAT       0.0536
  16392 WAT        17.1590   18.0940    4.8410 O      16392 WAT       0.0523
  16393 WAT        17.1590   18.0940    5.0910 O      16393 WAT       0.0649
  16394 WAT        17.1590   18.0940    5.3410 O      16394 WAT       0.0797
  16395 WAT        17.1590   18.0940    5.5910 O      16395 WAT       0.0925
  16396 WAT        17.1590   18.0940    5.8410 O      16396 WAT       0.0968
  16397 WAT        17.1590   18.0940    6.0910 O      16397 WAT       0.0888
  16398 WAT        17.1590   18.0940    6.3410 O      16398 WAT       0.0709
  16399 WAT        17.1590   18.0940    6.5910 O      16399 WAT       0.0500
  16400 WAT        17.1590   18.3440    4.5910 O      16400 WAT       0.0507
  16401 WAT        17.1590   18.3440    4.8410 O      16401 WAT       0.0609
  16402 WAT        17.1590   18.3440    5.0910 O      16402 WAT       0.0737
  16403 WAT        17.1590   18.3440    5.3410 O      16403 WAT       0.0872
  16404 WAT        17.1590   18.3440    5.5910 O      16404 WAT       0.0966
  16405 WAT        17.1590   18.3440    5.8410 O      16405 WAT       0.0954
  16406 WAT        17.1590   18.3440    6.0910 O      16406 WAT       0.0815
  16407 WAT        17.1590   18.3440    6.3410 O      16407 WAT       0.0595
  16408 WAT        17.1590   18.5940    4.3410 O      16408 WAT       0.0465
  16409 WAT        17.1590   18.5940    4.5910 O      16409 WAT       0.0514
  16410 WAT        17.1590   18.5940    4.8410 O      16410 WAT       0.0587
  16411 WAT        17.1590   18.5940    5.0910 O      16411 WAT       0.0673
  16412 WAT        17.1590   18.5940    5.3410 O      16412 WAT       0.0751
  16413 WAT        17.1590   18.5940    5.5910 O      16413 WAT       0.0782
  16414 WAT        17.1590   18.5940    5.8410 O      16414 WAT       0.0722
  16415 WAT        17.1590   18.5940    6.0910 O      16415 WAT       0.0572
  16416 WAT        17.1590   18.8440    3.0910 O      16416 WAT       0.0480
  16417 WAT        17.1590   18.8440    3.3410 O      16417 WAT       0.0495
  16418 WAT        17.1590   18.8440    3.5910 O      16418 WAT       0.0492
  16419 WAT        17.1590   18.8440    3.8410 O      16419 WAT       0.0473
  16420 WAT        17.1590   18.8440    4.8410 O      16420 WAT       0.0462
  16421 WAT        17.1590   18.8440    5.0910 O      16421 WAT       0.0487
  16422 WAT        17.1590   18.8440    5.3410 O      16422 WAT       0.0501
  16423 WAT        17.1590   18.8440    5.5910 O      16423 WAT       0.0482
  16424 WAT        17.1590   19.0940    3.0910 O      16424 WAT       0.0490
  16425 WAT        17.1590   19.0940    3.3410 O      16425 WAT       0.0503
  16426 WAT        17.1590   19.0940    3.5910 O      16426 WAT       0.0489
  16427 WAT        17.1590   19.0940    3.8410 O      16427 WAT       0.0451
  16428 WAT        17.4090   13.0940    8.5910 O      16428 WAT       0.0468
  16429 WAT        17.4090   13.0940    8.8410 O      16429 WAT       0.0503
  16430 WAT        17.4090   13.0940    9.0910 O      16430 WAT       0.0490
  16431 WAT        17.4090   13.3440    8.5910 O      16431 WAT       0.0513
  16432 WAT        17.4090   13.3440    8.8410 O      16432 WAT       0.0558
  16433 WAT        17.4090   13.3440    9.0910 O      16433 WAT       0.0562
  16434 WAT        17.4090   13.3440    9.3410 O      16434 WAT       0.0515
  16435 WAT        17.4090   13.5940    8.5910 O      16435 WAT       0.0492
  16436 WAT        17.4090   13.5940    8.8410 O      16436 WAT       0.0555
  16437 WAT        17.4090   13.5940    9.0910 O      16437 WAT       0.0594
  16438 WAT        17.4090   13.5940    9.3410 O      16438 WAT       0.0580
  16439 WAT        17.4090   13.5940    9.5910 O      16439 WAT       0.0482
  16440 WAT        17.4090   13.8440    8.8410 O      16440 WAT       0.0539
  16441 WAT        17.4090   13.8440    9.0910 O      16441 WAT       0.0632
  16442 WAT        17.4090   13.8440    9.3410 O      16442 WAT       0.0660
  16443 WAT        17.4090   13.8440    9.5910 O      16443 WAT       0.0567
  16444 WAT        17.4090   14.0940    8.8410 O      16444 WAT       0.0562
  16445 WAT        17.4090   14.0940    9.0910 O      16445 WAT       0.0708
  16446 WAT        17.4090   14.0940    9.3410 O      16446 WAT       0.0759
  16447 WAT        17.4090   14.0940    9.5910 O      16447 WAT       0.0653
  16448 WAT        17.4090   14.3440    8.8410 O      16448 WAT       0.0614
  16449 WAT        17.4090   14.3440    9.0910 O      16449 WAT       0.0778
  16450 WAT        17.4090   14.3440    9.3410 O      16450 WAT       0.0813
  16451 WAT        17.4090   14.3440    9.5910 O      16451 WAT       0.0679
  16452 WAT        17.4090   14.5940    8.8410 O      16452 WAT       0.0630
  16453 WAT        17.4090   14.5940    9.0910 O      16453 WAT       0.0754
  16454 WAT        17.4090   14.5940    9.3410 O      16454 WAT       0.0737
  16455 WAT        17.4090   14.5940    9.5910 O      16455 WAT       0.0580
  16456 WAT        17.4090   14.8440    8.8410 O      16456 WAT       0.0557
  16457 WAT        17.4090   14.8440    9.0910 O      16457 WAT       0.0602
  16458 WAT        17.4090   14.8440    9.3410 O      16458 WAT       0.0534
  16459 WAT        17.4090   15.8440   10.3410 O      16459 WAT       0.0543
  16460 WAT        17.4090   15.8440   10.5910 O      16460 WAT       0.0793
  16461 WAT        17.4090   15.8440   10.8410 O      16461 WAT       0.0843
  16462 WAT        17.4090   15.8440   11.0910 O      16462 WAT       0.0648
  16463 WAT        17.4090   16.0940   10.0910 O      16463 WAT       0.0686
  16464 WAT        17.4090   16.0940   10.3410 O      16464 WAT       0.1235
  16465 WAT        17.4090   16.0940   10.5910 O      16465 WAT       0.1620
  16466 WAT        17.4090   16.0940   10.8410 O      16466 WAT       0.1526
  16467 WAT        17.4090   16.0940   11.0910 O      16467 WAT       0.1028
  16468 WAT        17.4090   16.0940   11.3410 O      16468 WAT       0.0497
  16469 WAT        17.4090   16.3440    9.8410 O      16469 WAT       0.0617
  16470 WAT        17.4090   16.3440   10.0910 O      16470 WAT       0.1375
  16471 WAT        17.4090   16.3440   10.3410 O      16471 WAT       0.2230
  16472 WAT        17.4090   16.3440   10.5910 O      16472 WAT       0.2594
  16473 WAT        17.4090   16.3440   10.8410 O      16473 WAT       0.2139
  16474 WAT        17.4090   16.3440   11.0910 O      16474 WAT       0.1245
  16475 WAT        17.4090   16.3440   11.3410 O      16475 WAT       0.0513
  16476 WAT        17.4090   16.5940    9.8410 O      16476 WAT       0.1056
  16477 WAT        17.4090   16.5940   10.0910 O      16477 WAT       0.2177
  16478 WAT        17.4090   16.5940   10.3410 O      16478 WAT       0.3195
  16479 WAT        17.4090   16.5940   10.5910 O      16479 WAT       0.3290
  16480 WAT        17.4090   16.5940   10.8410 O      16480 WAT       0.2360
  16481 WAT        17.4090   16.5940   11.0910 O      16481 WAT       0.1175
  16482 WAT        17.4090   16.8440    9.5910 O      16482 WAT       0.0501
  16483 WAT        17.4090   16.8440    9.8410 O      16483 WAT       0.1380
  16484 WAT        17.4090   16.8440   10.0910 O      16484 WAT       0.2681
  16485 WAT        17.4090   16.8440   10.3410 O      16485 WAT       0.3608
  16486 WAT        17.4090   16.8440   10.5910 O      16486 WAT       0.3321
  16487 WAT        17.4090   16.8440   10.8410 O      16487 WAT       0.2082
  16488 WAT        17.4090   16.8440   11.0910 O      16488 WAT       0.0885
  16489 WAT        17.4090   17.0940    7.0910 O      16489 WAT       0.0458
  16490 WAT        17.4090   17.0940    9.5910 O      16490 WAT       0.0502
  16491 WAT        17.4090   17.0940    9.8410 O      16491 WAT       0.1352
  16492 WAT        17.4090   17.0940   10.0910 O      16492 WAT       0.2511
  16493 WAT        17.4090   17.0940   10.3410 O      16493 WAT       0.3154
  16494 WAT        17.4090   17.0940   10.5910 O      16494 WAT       0.2646
  16495 WAT        17.4090   17.0940   10.8410 O      16495 WAT       0.1474
  16496 WAT        17.4090   17.0940   11.0910 O      16496 WAT       0.0538
  16497 WAT        17.4090   17.3440    6.3410 O      16497 WAT       0.0457
  16498 WAT        17.4090   17.3440    6.5910 O      16498 WAT       0.0475
  16499 WAT        17.4090   17.3440    6.8410 O      16499 WAT       0.0470
  16500 WAT        17.4090   17.3440    9.8410 O      16500 WAT       0.0976
  16501 WAT        17.4090   17.3440   10.0910 O      16501 WAT       0.1754
  16502 WAT        17.4090   17.3440   10.3410 O      16502 WAT       0.2090
  16503 WAT        17.4090   17.3440   10.5910 O      16503 WAT       0.1630
  16504 WAT        17.4090   17.3440   10.8410 O      16504 WAT       0.0823
  16505 WAT        17.4090   17.5940    5.5910 O      16505 WAT       0.0533
  16506 WAT        17.4090   17.5940    5.8410 O      16506 WAT       0.0601
  16507 WAT        17.4090   17.5940    6.0910 O      16507 WAT       0.0630
  16508 WAT        17.4090   17.5940    6.3410 O      16508 WAT       0.0613
  16509 WAT        17.4090   17.5940    6.5910 O      16509 WAT       0.0559
  16510 WAT        17.4090   17.5940    6.8410 O      16510 WAT       0.0480
  16511 WAT        17.4090   17.5940    9.8410 O      16511 WAT       0.0512
  16512 WAT        17.4090   17.5940   10.0910 O      16512 WAT       0.0902
  16513 WAT        17.4090   17.5940   10.3410 O      16513 WAT       0.1034
  16514 WAT        17.4090   17.5940   10.5910 O      16514 WAT       0.0761
  16515 WAT        17.4090   17.8440    5.0910 O      16515 WAT       0.0526
  16516 WAT        17.4090   17.8440    5.3410 O      16516 WAT       0.0665
  16517 WAT        17.4090   17.8440    5.5910 O      16517 WAT       0.0787
  16518 WAT        17.4090   17.8440    5.8410 O      16518 WAT       0.0848
  16519 WAT        17.4090   17.8440    6.0910 O      16519 WAT       0.0825
  16520 WAT        17.4090   17.8440    6.3410 O      16520 WAT       0.0729
  16521 WAT        17.4090   17.8440    6.5910 O      16521 WAT       0.0595
  16522 WAT        17.4090   17.8440    6.8410 O      16522 WAT       0.0454
  16523 WAT        17.4090   18.0940    4.8410 O      16523 WAT       0.0536
  16524 WAT        17.4090   18.0940    5.0910 O      16524 WAT       0.0683
  16525 WAT        17.4090   18.0940    5.3410 O      16525 WAT       0.0839
  16526 WAT        17.4090   18.0940    5.5910 O      16526 WAT       0.0953
  16527 WAT        17.4090   18.0940    5.8410 O      16527 WAT       0.0973
  16528 WAT        17.4090   18.0940    6.0910 O      16528 WAT       0.0881
  16529 WAT        17.4090   18.0940    6.3410 O      16529 WAT       0.0712
  16530 WAT        17.4090   18.0940    6.5910 O      16530 WAT       0.0526
  16531 WAT        17.4090   18.3440    4.5910 O      16531 WAT       0.0479
  16532 WAT        17.4090   18.3440    4.8410 O      16532 WAT       0.0587
  16533 WAT        17.4090   18.3440    5.0910 O      16533 WAT       0.0717
  16534 WAT        17.4090   18.3440    5.3410 O      16534 WAT       0.0839
  16535 WAT        17.4090   18.3440    5.5910 O      16535 WAT       0.0905
  16536 WAT        17.4090   18.3440    5.8410 O      16536 WAT       0.0872
  16537 WAT        17.4090   18.3440    6.0910 O      16537 WAT       0.0736
  16538 WAT        17.4090   18.3440    6.3410 O      16538 WAT       0.0547
  16539 WAT        17.4090   18.5940    2.8410 O      16539 WAT       0.0466
  16540 WAT        17.4090   18.5940    3.0910 O      16540 WAT       0.0461
  16541 WAT        17.4090   18.5940    4.5910 O      16541 WAT       0.0453
  16542 WAT        17.4090   18.5940    4.8410 O      16542 WAT       0.0521
  16543 WAT        17.4090   18.5940    5.0910 O      16543 WAT       0.0595
  16544 WAT        17.4090   18.5940    5.3410 O      16544 WAT       0.0652
  16545 WAT        17.4090   18.5940    5.5910 O      16545 WAT       0.0662
  16546 WAT        17.4090   18.5940    5.8410 O      16546 WAT       0.0598
  16547 WAT        17.4090   18.5940    6.0910 O      16547 WAT       0.0470
  16548 WAT        17.4090   18.8440    2.8410 O      16548 WAT       0.0490
  16549 WAT        17.4090   18.8440    3.0910 O      16549 WAT       0.0496
  16550 WAT        17.4090   18.8440    3.3410 O      16550 WAT       0.0479
  16551 WAT        17.4090   18.8440    3.5910 O      16551 WAT       0.0450
  16552 WAT        17.4090   19.0940    2.8410 O      16552 WAT       0.0483
  16553 WAT        17.4090   19.0940    3.0910 O      16553 WAT       0.0490
  16554 WAT        17.4090   19.0940    3.3410 O      16554 WAT       0.0471
  16555 WAT        17.6590    9.3440   10.5910 O      16555 WAT       0.0450
  16556 WAT        17.6590    9.5940   10.3410 O      16556 WAT       0.0452
  16557 WAT        17.6590   13.0940    8.8410 O      16557 WAT       0.0452
  16558 WAT        17.6590   13.0940    9.0910 O      16558 WAT       0.0493
  16559 WAT        17.6590   13.0940    9.3410 O      16559 WAT       0.0487
  16560 WAT        17.6590   13.3440    8.8410 O      16560 WAT       0.0523
  16561 WAT        17.6590   13.3440    9.0910 O      16561 WAT       0.0579
  16562 WAT        17.6590   13.3440    9.3410 O      16562 WAT       0.0579
  16563 WAT        17.6590   13.3440    9.5910 O      16563 WAT       0.0489
  16564 WAT        17.6590   13.5940    8.5910 O      16564 WAT       0.0458
  16565 WAT        17.6590   13.5940    8.8410 O      16565 WAT       0.0550
  16566 WAT        17.6590   13.5940    9.0910 O      16566 WAT       0.0627
  16567 WAT        17.6590   13.5940    9.3410 O      16567 WAT       0.0643
  16568 WAT        17.6590   13.5940    9.5910 O      16568 WAT       0.0549
  16569 WAT        17.6590   13.8440    8.8410 O      16569 WAT       0.0545
  16570 WAT        17.6590   13.8440    9.0910 O      16570 WAT       0.0649
  16571 WAT        17.6590   13.8440    9.3410 O      16571 WAT       0.0683
  16572 WAT        17.6590   13.8440    9.5910 O      16572 WAT       0.0586
  16573 WAT        17.6590   14.0940    8.8410 O      16573 WAT       0.0535
  16574 WAT        17.6590   14.0940    9.0910 O      16574 WAT       0.0661
  16575 WAT        17.6590   14.0940    9.3410 O      16575 WAT       0.0701
  16576 WAT        17.6590   14.0940    9.5910 O      16576 WAT       0.0595
  16577 WAT        17.6590   14.3440    8.8410 O      16577 WAT       0.0527
  16578 WAT        17.6590   14.3440    9.0910 O      16578 WAT       0.0653
  16579 WAT        17.6590   14.3440    9.3410 O      16579 WAT       0.0674
  16580 WAT        17.6590   14.3440    9.5910 O      16580 WAT       0.0553
  16581 WAT        17.6590   14.5940    8.8410 O      16581 WAT       0.0494
  16582 WAT        17.6590   14.5940    9.0910 O      16582 WAT       0.0584
  16583 WAT        17.6590   14.5940    9.3410 O      16583 WAT       0.0566
  16584 WAT        17.6590   15.8440   10.3410 O      16584 WAT       0.0515
  16585 WAT        17.6590   15.8440   10.5910 O      16585 WAT       0.0708
  16586 WAT        17.6590   15.8440   10.8410 O      16586 WAT       0.0705
  16587 WAT        17.6590   15.8440   11.0910 O      16587 WAT       0.0507
  16588 WAT        17.6590   16.0940   10.0910 O      16588 WAT       0.0746
  16589 WAT        17.6590   16.0940   10.3410 O      16589 WAT       0.1270
  16590 WAT        17.6590   16.0940   10.5910 O      16590 WAT       0.1568
  16591 WAT        17.6590   16.0940   10.8410 O      16591 WAT       0.1385
  16592 WAT        17.6590   16.0940   11.0910 O      16592 WAT       0.0871
  16593 WAT        17.6590   16.3440    9.8410 O      16593 WAT       0.0744
  16594 WAT        17.6590   16.3440   10.0910 O      16594 WAT       0.1590
  16595 WAT        17.6590   16.3440   10.3410 O      16595 WAT       0.2462
  16596 WAT        17.6590   16.3440   10.5910 O      16596 WAT       0.2718
  16597 WAT        17.6590   16.3440   10.8410 O      16597 WAT       0.2112
  16598 WAT        17.6590   16.3440   11.0910 O      16598 WAT       0.1150
  16599 WAT        17.6590   16.5940    9.5910 O      16599 WAT       0.0467
  16600 WAT        17.6590   16.5940    9.8410 O      16600 WAT       0.1306
  16601 WAT        17.6590   16.5940   10.0910 O      16601 WAT       0.2629
  16602 WAT        17.6590   16.5940   10.3410 O      16602 WAT       0.3744
  16603 WAT        17.6590   16.5940   10.5910 O      16603 WAT       0.3710
  16604 WAT        17.6590   16.5940   10.8410 O      16604 WAT       0.2537
  16605 WAT        17.6590   16.5940   11.0910 O      16605 WAT       0.1193
  16606 WAT        17.6590   16.8440    9.5910 O      16606 WAT       0.0633
  16607 WAT        17.6590   16.8440    9.8410 O      16607 WAT       0.1728
  16608 WAT        17.6590   16.8440   10.0910 O      16608 WAT       0.3325
  16609 WAT        17.6590   16.8440   10.3410 O      16609 WAT       0.4413
  16610 WAT        17.6590   16.8440   10.5910 O      16610 WAT       0.3977
  16611 WAT        17.6590   16.8440   10.8410 O      16611 WAT       0.2419
  16612 WAT        17.6590   16.8440   11.0910 O      16612 WAT       0.0988
  16613 WAT        17.6590   17.0940    9.5910 O      16613 WAT       0.0634
  16614 WAT        17.6590   17.0940    9.8410 O      16614 WAT       0.1703
  16615 WAT        17.6590   17.0940   10.0910 O      16615 WAT       0.3160
  16616 WAT        17.6590   17.0940   10.3410 O      16616 WAT       0.3959
  16617 WAT        17.6590   17.0940   10.5910 O      16617 WAT       0.3301
  16618 WAT        17.6590   17.0940   10.8410 O      16618 WAT       0.1816
  16619 WAT        17.6590   17.0940   11.0910 O      16619 WAT       0.0652
  16620 WAT        17.6590   17.3440    6.0910 O      16620 WAT       0.0465
  16621 WAT        17.6590   17.3440    6.3410 O      16621 WAT       0.0489
  16622 WAT        17.6590   17.3440    6.5910 O      16622 WAT       0.0489
  16623 WAT        17.6590   17.3440    6.8410 O      16623 WAT       0.0456
  16624 WAT        17.6590   17.3440    9.5910 O      16624 WAT       0.0466
  16625 WAT        17.6590   17.3440    9.8410 O      16625 WAT       0.1241
  16626 WAT        17.6590   17.3440   10.0910 O      16626 WAT       0.2234
  16627 WAT        17.6590   17.3440   10.3410 O      16627 WAT       0.2671
  16628 WAT        17.6590   17.3440   10.5910 O      16628 WAT       0.2089
  16629 WAT        17.6590   17.3440   10.8410 O      16629 WAT       0.1057
  16630 WAT        17.6590   17.5940    5.3410 O      16630 WAT       0.0491
  16631 WAT        17.6590   17.5940    5.5910 O      16631 WAT       0.0579
  16632 WAT        17.6590   17.5940    5.8410 O      16632 WAT       0.0632
  16633 WAT        17.6590   17.5940    6.0910 O      16633 WAT       0.0645
  16634 WAT        17.6590   17.5940    6.3410 O      16634 WAT       0.0621
  16635 WAT        17.6590   17.5940    6.5910 O      16635 WAT       0.0569
  16636 WAT        17.6590   17.5940    6.8410 O      16636 WAT       0.0492
  16637 WAT        17.6590   17.5940    9.8410 O      16637 WAT       0.0667
  16638 WAT        17.6590   17.5940   10.0910 O      16638 WAT       0.1174
  16639 WAT        17.6590   17.5940   10.3410 O      16639 WAT       0.1351
  16640 WAT        17.6590   17.5940   10.5910 O      16640 WAT       0.1001
  16641 WAT        17.6590   17.5940   10.8410 O      16641 WAT       0.0468
  16642 WAT        17.6590   17.8440    5.0910 O      16642 WAT       0.0547
  16643 WAT        17.6590   17.8440    5.3410 O      16643 WAT       0.0685
  16644 WAT        17.6590   17.8440    5.5910 O      16644 WAT       0.0781
  16645 WAT        17.6590   17.8440    5.8410 O      16645 WAT       0.0807
  16646 WAT        17.6590   17.8440    6.0910 O      16646 WAT       0.0764
  16647 WAT        17.6590   17.8440    6.3410 O      16647 WAT       0.0678
  16648 WAT        17.6590   17.8440    6.5910 O      16648 WAT       0.0579
  16649 WAT        17.6590   17.8440    6.8410 O      16649 WAT       0.0477
  16650 WAT        17.6590   17.8440   10.0910 O      16650 WAT       0.0461
  16651 WAT        17.6590   17.8440   10.3410 O      16651 WAT       0.0514
  16652 WAT        17.6590   18.0940    2.5910 O      16652 WAT       0.0467
  16653 WAT        17.6590   18.0940    2.8410 O      16653 WAT       0.0465
  16654 WAT        17.6590   18.0940    4.8410 O      16654 WAT       0.0501
  16655 WAT        17.6590   18.0940    5.0910 O      16655 WAT       0.0646
  16656 WAT        17.6590   18.0940    5.3410 O      16656 WAT       0.0777
  16657 WAT        17.6590   18.0940    5.5910 O      16657 WAT       0.0846
  16658 WAT        17.6590   18.0940    5.8410 O      16658 WAT       0.0825
  16659 WAT        17.6590   18.0940    6.0910 O      16659 WAT       0.0727
  16660 WAT        17.6590   18.0940    6.3410 O      16660 WAT       0.0595
  16661 WAT        17.6590   18.0940    6.5910 O      16661 WAT       0.0472
  16662 WAT        17.6590   18.3440    2.5910 O      16662 WAT       0.0498
  16663 WAT        17.6590   18.3440    2.8410 O      16663 WAT       0.0503
  16664 WAT        17.6590   18.3440    3.0910 O      16664 WAT       0.0454
  16665 WAT        17.6590   18.3440    4.8410 O      16665 WAT       0.0496
  16666 WAT        17.6590   18.3440    5.0910 O      16666 WAT       0.0607
  16667 WAT        17.6590   18.3440    5.3410 O      16667 WAT       0.0691
  16668 WAT        17.6590   18.3440    5.5910 O      16668 WAT       0.0711
  16669 WAT        17.6590   18.3440    5.8410 O      16669 WAT       0.0653
  16670 WAT        17.6590   18.3440    6.0910 O      16670 WAT       0.0536
  16671 WAT        17.6590   18.5940    2.5910 O      16671 WAT       0.0499
  16672 WAT        17.6590   18.5940    2.8410 O      16672 WAT       0.0513
  16673 WAT        17.6590   18.5940    3.0910 O      16673 WAT       0.0472
  16674 WAT        17.6590   18.5940    5.3410 O      16674 WAT       0.0472
  16675 WAT        17.6590   18.5940    5.5910 O      16675 WAT       0.0457
  16676 WAT        17.6590   18.8440    2.5910 O      16676 WAT       0.0480
  16677 WAT        17.6590   18.8440    2.8410 O      16677 WAT       0.0498
  16678 WAT        17.6590   18.8440    3.0910 O      16678 WAT       0.0464
  16679 WAT        17.6590   19.0940    2.8410 O      16679 WAT       0.0454
  16680 WAT        17.6590   20.5940   16.5910 O      16680 WAT       0.0535
  16681 WAT        17.6590   20.5940   16.8410 O      16681 WAT       0.0473
  16682 WAT        17.6590   20.8440   16.3410 O      16682 WAT       0.0933
  16683 WAT        17.6590   20.8440   16.5910 O      16683 WAT       0.1293
  16684 WAT        17.6590   20.8440   16.8410 O      16684 WAT       0.1131
  16685 WAT        17.6590   20.8440   17.0910 O      16685 WAT       0.0623
  16686 WAT        17.6590   21.0940   16.0910 O      16686 WAT       0.0633
  16687 WAT        17.6590   21.0940   16.3410 O      16687 WAT       0.1375
  16688 WAT        17.6590   21.0940   16.5910 O      16688 WAT       0.1858
  16689 WAT        17.6590   21.0940   16.8410 O      16689 WAT       0.1598
  16690 WAT        17.6590   21.0940   17.0910 O      16690 WAT       0.0877
  16691 WAT        17.6590   21.3440   16.0910 O      16691 WAT       0.0576
  16692 WAT        17.6590   21.3440   16.3410 O      16692 WAT       0.1225
  16693 WAT        17.6590   21.3440   16.5910 O      16693 WAT       0.1620
  16694 WAT        17.6590   21.3440   16.8410 O      16694 WAT       0.1368
  16695 WAT        17.6590   21.3440   17.0910 O      16695 WAT       0.0739
  16696 WAT        17.6590   21.5940   16.3410 O      16696 WAT       0.0652
  16697 WAT        17.6590   21.5940   16.5910 O      16697 WAT       0.0852
  16698 WAT        17.6590   21.5940   16.8410 O      16698 WAT       0.0704
  16699 WAT        17.6590   30.8440   21.5910 O      16699 WAT       0.0496
  16700 WAT        17.6590   30.8440   21.8410 O      16700 WAT       0.0753
  16701 WAT        17.6590   30.8440   22.0910 O      16701 WAT       0.0794
  16702 WAT        17.6590   30.8440   22.3410 O      16702 WAT       0.0574
  16703 WAT        17.6590   31.0940   21.5910 O      16703 WAT       0.0636
  16704 WAT        17.6590   31.0940   21.8410 O      16704 WAT       0.0950
  16705 WAT        17.6590   31.0940   22.0910 O      16705 WAT       0.0998
  16706 WAT        17.6590   31.0940   22.3410 O      16706 WAT       0.0726
  16707 WAT        17.6590   31.3440   21.5910 O      16707 WAT       0.0494
  16708 WAT        17.6590   31.3440   21.8410 O      16708 WAT       0.0735
  16709 WAT        17.6590   31.3440   22.0910 O      16709 WAT       0.0773
  16710 WAT        17.6590   31.3440   22.3410 O      16710 WAT       0.0565
  16711 WAT        17.9090    8.3440   12.0910 O      16711 WAT       0.0466
  16712 WAT        17.9090    8.3440   12.3410 O      16712 WAT       0.0471
  16713 WAT        17.9090    9.3440   10.5910 O      16713 WAT       0.0456
  16714 WAT        17.9090    9.5940   10.3410 O      16714 WAT       0.0451
  16715 WAT        17.9090   11.8440    9.3410 O      16715 WAT       0.0454
  16716 WAT        17.9090   12.0940    9.3410 O      16716 WAT       0.0451
  16717 WAT        17.9090   13.0940    9.3410 O      16717 WAT       0.0471
  16718 WAT        17.9090   13.3440    9.0910 O      16718 WAT       0.0513
  16719 WAT        17.9090   13.3440    9.3410 O      16719 WAT       0.0540
  16720 WAT        17.9090   13.3440    9.5910 O      16720 WAT       0.0471
  16721 WAT        17.9090   13.5940    8.8410 O      16721 WAT       0.0481
  16722 WAT        17.9090   13.5940    9.0910 O      16722 WAT       0.0571
  16723 WAT        17.9090   13.5940    9.3410 O      16723 WAT       0.0597
  16724 WAT        17.9090   13.5940    9.5910 O      16724 WAT       0.0510
  16725 WAT        17.9090   13.8440    8.8410 O      16725 WAT       0.0499
  16726 WAT        17.9090   13.8440    9.0910 O      16726 WAT       0.0597
  16727 WAT        17.9090   13.8440    9.3410 O      16727 WAT       0.0619
  16728 WAT        17.9090   13.8440    9.5910 O      16728 WAT       0.0516
  16729 WAT        17.9090   14.0940    8.8410 O      16729 WAT       0.0488
  16730 WAT        17.9090   14.0940    9.0910 O      16730 WAT       0.0585
  16731 WAT        17.9090   14.0940    9.3410 O      16731 WAT       0.0595
  16732 WAT        17.9090   14.0940    9.5910 O      16732 WAT       0.0480
  16733 WAT        17.9090   14.3440    8.8410 O      16733 WAT       0.0451
  16734 WAT        17.9090   14.3440    9.0910 O      16734 WAT       0.0532
  16735 WAT        17.9090   14.3440    9.3410 O      16735 WAT       0.0522
  16736 WAT        17.9090   15.8440   10.5910 O      16736 WAT       0.0466
  16737 WAT        17.9090   16.0940   10.0910 O      16737 WAT       0.0614
  16738 WAT        17.9090   16.0940   10.3410 O      16738 WAT       0.0982
  16739 WAT        17.9090   16.0940   10.5910 O      16739 WAT       0.1135
  16740 WAT        17.9090   16.0940   10.8410 O      16740 WAT       0.0932
  16741 WAT        17.9090   16.0940   11.0910 O      16741 WAT       0.0539
  16742 WAT        17.9090   16.3440    9.8410 O      16742 WAT       0.0670
  16743 WAT        17.9090   16.3440   10.0910 O      16743 WAT       0.1378
  16744 WAT        17.9090   16.3440   10.3410 O      16744 WAT       0.2043
  16745 WAT        17.9090   16.3440   10.5910 O      16745 WAT       0.2144
  16746 WAT        17.9090   16.3440   10.8410 O      16746 WAT       0.1568
  16747 WAT        17.9090   16.3440   11.0910 O      16747 WAT       0.0793
  16748 WAT        17.9090   16.5940    9.8410 O      16748 WAT       0.1188
  16749 WAT        17.9090   16.5940   10.0910 O      16749 WAT       0.2348
  16750 WAT        17.9090   16.5940   10.3410 O      16750 WAT       0.3269
  16751 WAT        17.9090   16.5940   10.5910 O      16751 WAT       0.3143
  16752 WAT        17.9090   16.5940   10.8410 O      16752 WAT       0.2064
  16753 WAT        17.9090   16.5940   11.0910 O      16753 WAT       0.0917
  16754 WAT        17.9090   16.8440    9.5910 O      16754 WAT       0.0577
  16755 WAT        17.9090   16.8440    9.8410 O      16755 WAT       0.1569
  16756 WAT        17.9090   16.8440   10.0910 O      16756 WAT       0.3008
  16757 WAT        17.9090   16.8440   10.3410 O      16757 WAT       0.3969
  16758 WAT        17.9090   16.8440   10.5910 O      16758 WAT       0.3540
  16759 WAT        17.9090   16.8440   10.8410 O      16759 WAT       0.2113
  16760 WAT        17.9090   16.8440   11.0910 O      16760 WAT       0.0835
  16761 WAT        17.9090   17.0940    9.5910 O      16761 WAT       0.0571
  16762 WAT        17.9090   17.0940    9.8410 O      16762 WAT       0.1538
  16763 WAT        17.9090   17.0940   10.0910 O      16763 WAT       0.2865
  16764 WAT        17.9090   17.0940   10.3410 O      16764 WAT       0.3609
  16765 WAT        17.9090   17.0940   10.5910 O      16765 WAT       0.3020
  16766 WAT        17.9090   17.0940   10.8410 O      16766 WAT       0.1661
  16767 WAT        17.9090   17.0940   11.0910 O      16767 WAT       0.0590
  16768 WAT        17.9090   17.3440    6.0910 O      16768 WAT       0.0477
  16769 WAT        17.9090   17.3440    6.3410 O      16769 WAT       0.0489
  16770 WAT        17.9090   17.3440    6.5910 O      16770 WAT       0.0476
  16771 WAT        17.9090   17.3440    9.8410 O      16771 WAT       0.1120
  16772 WAT        17.9090   17.3440   10.0910 O      16772 WAT       0.2031
  16773 WAT        17.9090   17.3440   10.3410 O      16773 WAT       0.2452
  16774 WAT        17.9090   17.3440   10.5910 O      16774 WAT       0.1938
  16775 WAT        17.9090   17.3440   10.8410 O      16775 WAT       0.0990
  16776 WAT        17.9090   17.5940    5.3410 O      16776 WAT       0.0498
  16777 WAT        17.9090   17.5940    5.5910 O      16777 WAT       0.0570
  16778 WAT        17.9090   17.5940    5.8410 O      16778 WAT       0.0603
  16779 WAT        17.9090   17.5940    6.0910 O      16779 WAT       0.0601
  16780 WAT        17.9090   17.5940    6.3410 O      16780 WAT       0.0580
  16781 WAT        17.9090   17.5940    6.5910 O      16781 WAT       0.0549
  16782 WAT        17.9090   17.5940    6.8410 O      16782 WAT       0.0497
  16783 WAT        17.9090   17.5940    9.8410 O      16783 WAT       0.0613
  16784 WAT        17.9090   17.5940   10.0910 O      16784 WAT       0.1084
  16785 WAT        17.9090   17.5940   10.3410 O      16785 WAT       0.1257
  16786 WAT        17.9090   17.5940   10.5910 O      16786 WAT       0.0941
  16787 WAT        17.9090   17.8440    2.5910 O      16787 WAT       0.0480
  16788 WAT        17.9090   17.8440    2.8410 O      16788 WAT       0.0478
  16789 WAT        17.9090   17.8440    5.0910 O      16789 WAT       0.0509
  16790 WAT        17.9090   17.8440    5.3410 O      16790 WAT       0.0626
  16791 WAT        17.9090   17.8440    5.5910 O      16791 WAT       0.0687
  16792 WAT        17.9090   17.8440    5.8410 O      16792 WAT       0.0680
  16793 WAT        17.9090   17.8440    6.0910 O      16793 WAT       0.0630
  16794 WAT        17.9090   17.8440    6.3410 O      16794 WAT       0.0574
  16795 WAT        17.9090   17.8440    6.5910 O      16795 WAT       0.0534
  16796 WAT        17.9090   17.8440    6.8410 O      16796 WAT       0.0494
  16797 WAT        17.9090   17.8440   10.3410 O      16797 WAT       0.0493
  16798 WAT        17.9090   18.0940    2.5910 O      16798 WAT       0.0532
  16799 WAT        17.9090   18.0940    2.8410 O      16799 WAT       0.0524
  16800 WAT        17.9090   18.0940    3.0910 O      16800 WAT       0.0453
  16801 WAT        17.9090   18.0940    5.0910 O      16801 WAT       0.0532
  16802 WAT        17.9090   18.0940    5.3410 O      16802 WAT       0.0625
  16803 WAT        17.9090   18.0940    5.5910 O      16803 WAT       0.0650
  16804 WAT        17.9090   18.0940    5.8410 O      16804 WAT       0.0604
  16805 WAT        17.9090   18.0940    6.0910 O      16805 WAT       0.0520
  16806 WAT        17.9090   18.3440    2.5910 O      16806 WAT       0.0546
  16807 WAT        17.9090   18.3440    2.8410 O      16807 WAT       0.0536
  16808 WAT        17.9090   18.3440    3.0910 O      16808 WAT       0.0459
  16809 WAT        17.9090   18.3440    5.3410 O      16809 WAT       0.0482
  16810 WAT        17.9090   18.3440    5.5910 O      16810 WAT       0.0472
  16811 WAT        17.9090   18.5940    2.5910 O      16811 WAT       0.0518
  16812 WAT        17.9090   18.5940    2.8410 O      16812 WAT       0.0507
  16813 WAT        17.9090   18.8440    2.5910 O      16813 WAT       0.0461
  16814 WAT        17.9090   20.5940   16.3410 O      16814 WAT       0.1017
  16815 WAT        17.9090   20.5940   16.5910 O      16815 WAT       0.1476
  16816 WAT        17.9090   20.5940   16.8410 O      16816 WAT       0.1346
  16817 WAT        17.9090   20.5940   17.0910 O      16817 WAT       0.0773
  16818 WAT        17.9090   20.8440   16.0910 O      16818 WAT       0.1080
  16819 WAT        17.9090   20.8440   16.3410 O      16819 WAT       0.2447
  16820 WAT        17.9090   20.8440   16.5910 O      16820 WAT       0.3476
  16821 WAT        17.9090   20.8440   16.8410 O      16821 WAT       0.3129
  16822 WAT        17.9090   20.8440   17.0910 O      16822 WAT       0.1795
  16823 WAT        17.9090   20.8440   17.3410 O      16823 WAT       0.0649
  16824 WAT        17.9090   21.0940   16.0910 O      16824 WAT       0.1616
  16825 WAT        17.9090   21.0940   16.3410 O      16825 WAT       0.3564
  16826 WAT        17.9090   21.0940   16.5910 O      16826 WAT       0.4968
  16827 WAT        17.9090   21.0940   16.8410 O      16827 WAT       0.4407
  16828 WAT        17.9090   21.0940   17.0910 O      16828 WAT       0.2503
  16829 WAT        17.9090   21.0940   17.3410 O      16829 WAT       0.0911
  16830 WAT        17.9090   21.3440   16.0910 O      16830 WAT       0.1463
  16831 WAT        17.9090   21.3440   16.3410 O      16831 WAT       0.3154
  16832 WAT        17.9090   21.3440   16.5910 O      16832 WAT       0.4309
  16833 WAT        17.9090   21.3440   16.8410 O      16833 WAT       0.3762
  16834 WAT        17.9090   21.3440   17.0910 O      16834 WAT       0.2114
  16835 WAT        17.9090   21.3440   17.3410 O      16835 WAT       0.0763
  16836 WAT        17.9090   21.5940   16.0910 O      16836 WAT       0.0796
  16837 WAT        17.9090   21.5940   16.3410 O      16837 WAT       0.1693
  16838 WAT        17.9090   21.5940   16.5910 O      16838 WAT       0.2267
  16839 WAT        17.9090   21.5940   16.8410 O      16839 WAT       0.1946
  16840 WAT        17.9090   21.5940   17.0910 O      16840 WAT       0.1079
  16841 WAT        17.9090   21.8440   16.3410 O      16841 WAT       0.0536
  16842 WAT        17.9090   21.8440   16.5910 O      16842 WAT       0.0715
  16843 WAT        17.9090   21.8440   16.8410 O      16843 WAT       0.0602
  16844 WAT        17.9090   30.5940   21.5910 O      16844 WAT       0.0736
  16845 WAT        17.9090   30.5940   21.8410 O      16845 WAT       0.1119
  16846 WAT        17.9090   30.5940   22.0910 O      16846 WAT       0.1182
  16847 WAT        17.9090   30.5940   22.3410 O      16847 WAT       0.0855
  16848 WAT        17.9090   30.8440   21.3410 O      16848 WAT       0.0726
  16849 WAT        17.9090   30.8440   21.5910 O      16849 WAT       0.1521
  16850 WAT        17.9090   30.8440   21.8410 O      16850 WAT       0.2267
  16851 WAT        17.9090   30.8440   22.0910 O      16851 WAT       0.2376
  16852 WAT        17.9090   30.8440   22.3410 O      16852 WAT       0.1725
  16853 WAT        17.9090   30.8440   22.5910 O      16853 WAT       0.0851
  16854 WAT        17.9090   31.0940   21.3410 O      16854 WAT       0.0941
  16855 WAT        17.9090   31.0940   21.5910 O      16855 WAT       0.1925
  16856 WAT        17.9090   31.0940   21.8410 O      16856 WAT       0.2836
  16857 WAT        17.9090   31.0940   22.0910 O      16857 WAT       0.2963
  16858 WAT        17.9090   31.0940   22.3410 O      16858 WAT       0.2161
  16859 WAT        17.9090   31.0940   22.5910 O      16859 WAT       0.1081
  16860 WAT        17.9090   31.3440   21.3410 O      16860 WAT       0.0740
  16861 WAT        17.9090   31.3440   21.5910 O      16861 WAT       0.1494
  16862 WAT        17.9090   31.3440   21.8410 O      16862 WAT       0.2187
  16863 WAT        17.9090   31.3440   22.0910 O      16863 WAT       0.2289
  16864 WAT        17.9090   31.3440   22.3410 O      16864 WAT       0.1684
  16865 WAT        17.9090   31.3440   22.5910 O      16865 WAT       0.0853
  16866 WAT        17.9090   31.5940   21.5910 O      16866 WAT       0.0705
  16867 WAT        17.9090   31.5940   21.8410 O      16867 WAT       0.1035
  16868 WAT        17.9090   31.5940   22.0910 O      16868 WAT       0.1091
  16869 WAT        17.9090   31.5940   22.3410 O      16869 WAT       0.0810
  16870 WAT        18.1590    8.3440   12.0910 O      16870 WAT       0.0530
  16871 WAT        18.1590    8.3440   12.3410 O      16871 WAT       0.0562
  16872 WAT        18.1590    8.3440   12.5910 O      16872 WAT       0.0497
  16873 WAT        18.1590    8.5940   11.8410 O      16873 WAT       0.0460
  16874 WAT        18.1590    8.5940   12.0910 O      16874 WAT       0.0495
  16875 WAT        18.1590    8.5940   12.3410 O      16875 WAT       0.0468
  16876 WAT        18.1590   11.3440    9.5910 O      16876 WAT       0.0453
  16877 WAT        18.1590   11.5940    9.3410 O      16877 WAT       0.0471
  16878 WAT        18.1590   11.5940    9.5910 O      16878 WAT       0.0486
  16879 WAT        18.1590   11.8440    9.3410 O      16879 WAT       0.0503
  16880 WAT        18.1590   11.8440    9.5910 O      16880 WAT       0.0523
  16881 WAT        18.1590   12.0940    9.3410 O      16881 WAT       0.0521
  16882 WAT        18.1590   12.0940    9.5910 O      16882 WAT       0.0545
  16883 WAT        18.1590   12.0940    9.8410 O      16883 WAT       0.0458
  16884 WAT        18.1590   12.3440    9.3410 O      16884 WAT       0.0506
  16885 WAT        18.1590   12.3440    9.5910 O      16885 WAT       0.0530
  16886 WAT        18.1590   12.5940    9.3410 O      16886 WAT       0.0464
  16887 WAT        18.1590   12.5940    9.5910 O      16887 WAT       0.0477
  16888 WAT        18.1590   13.5940    9.0910 O      16888 WAT       0.0471
  16889 WAT        18.1590   13.5940    9.3410 O      16889 WAT       0.0486
  16890 WAT        18.1590   13.8440    9.0910 O      16890 WAT       0.0512
  16891 WAT        18.1590   13.8440    9.3410 O      16891 WAT       0.0510
  16892 WAT        18.1590   14.0940    9.0910 O      16892 WAT       0.0512
  16893 WAT        18.1590   14.0940    9.3410 O      16893 WAT       0.0489
  16894 WAT        18.1590   14.3440    9.0910 O      16894 WAT       0.0461
  16895 WAT        18.1590   16.0940   10.3410 O      16895 WAT       0.0580
  16896 WAT        18.1590   16.0940   10.5910 O      16896 WAT       0.0624
  16897 WAT        18.1590   16.0940   10.8410 O      16897 WAT       0.0471
  16898 WAT        18.1590   16.3440    9.8410 O      16898 WAT       0.0457
  16899 WAT        18.1590   16.3440   10.0910 O      16899 WAT       0.0906
  16900 WAT        18.1590   16.3440   10.3410 O      16900 WAT       0.1291
  16901 WAT        18.1590   16.3440   10.5910 O      16901 WAT       0.1291
  16902 WAT        18.1590   16.3440   10.8410 O      16902 WAT       0.0890
  16903 WAT        18.1590   16.5940    9.8410 O      16903 WAT       0.0807
  16904 WAT        18.1590   16.5940   10.0910 O      16904 WAT       0.1571
  16905 WAT        18.1590   16.5940   10.3410 O      16905 WAT       0.2150
  16906 WAT        18.1590   16.5940   10.5910 O      16906 WAT       0.2020
  16907 WAT        18.1590   16.5940   10.8410 O      16907 WAT       0.1283
  16908 WAT        18.1590   16.5940   11.0910 O      16908 WAT       0.0540
  16909 WAT        18.1590   16.8440    9.8410 O      16909 WAT       0.1051
  16910 WAT        18.1590   16.8440   10.0910 O      16910 WAT       0.2013
  16911 WAT        18.1590   16.8440   10.3410 O      16911 WAT       0.2656
  16912 WAT        18.1590   16.8440   10.5910 O      16912 WAT       0.2363
  16913 WAT        18.1590   16.8440   10.8410 O      16913 WAT       0.1397
  16914 WAT        18.1590   16.8440   11.0910 O      16914 WAT       0.0537
  16915 WAT        18.1590   17.0940    9.8410 O      16915 WAT       0.1014
  16916 WAT        18.1590   17.0940   10.0910 O      16916 WAT       0.1902
  16917 WAT        18.1590   17.0940   10.3410 O      16917 WAT       0.2420
  16918 WAT        18.1590   17.0940   10.5910 O      16918 WAT       0.2047
  16919 WAT        18.1590   17.0940   10.8410 O      16919 WAT       0.1134
  16920 WAT        18.1590   17.3440    6.0910 O      16920 WAT       0.0458
  16921 WAT        18.1590   17.3440    6.3410 O      16921 WAT       0.0470
  16922 WAT        18.1590   17.3440    6.5910 O      16922 WAT       0.0460
  16923 WAT        18.1590   17.3440    9.8410 O      16923 WAT       0.0734
  16924 WAT        18.1590   17.3440   10.0910 O      16924 WAT       0.1342
  16925 WAT        18.1590   17.3440   10.3410 O      16925 WAT       0.1641
  16926 WAT        18.1590   17.3440   10.5910 O      16926 WAT       0.1317
  16927 WAT        18.1590   17.3440   10.8410 O      16927 WAT       0.0682
  16928 WAT        18.1590   17.5940    2.5910 O      16928 WAT       0.0463
  16929 WAT        18.1590   17.5940    2.8410 O      16929 WAT       0.0470
  16930 WAT        18.1590   17.5940    5.3410 O      16930 WAT       0.0451
  16931 WAT        18.1590   17.5940    5.5910 O      16931 WAT       0.0507
  16932 WAT        18.1590   17.5940    5.8410 O      16932 WAT       0.0527
  16933 WAT        18.1590   17.5940    6.0910 O      16933 WAT       0.0526
  16934 WAT        18.1590   17.5940    6.3410 O      16934 WAT       0.0527
  16935 WAT        18.1590   17.5940    6.5910 O      16935 WAT       0.0537
  16936 WAT        18.1590   17.5940    6.8410 O      16936 WAT       0.0521
  16937 WAT        18.1590   17.5940   10.0910 O      16937 WAT       0.0721
  16938 WAT        18.1590   17.5940   10.3410 O      16938 WAT       0.0844
  16939 WAT        18.1590   17.5940   10.5910 O      16939 WAT       0.0640
  16940 WAT        18.1590   17.8440    2.5910 O      16940 WAT       0.0521
  16941 WAT        18.1590   17.8440    2.8410 O      16941 WAT       0.0513
  16942 WAT        18.1590   17.8440    5.3410 O      16942 WAT       0.0501
  16943 WAT        18.1590   17.8440    5.5910 O      16943 WAT       0.0537
  16944 WAT        18.1590   17.8440    5.8410 O      16944 WAT       0.0520
  16945 WAT        18.1590   17.8440    6.0910 O      16945 WAT       0.0486
  16946 WAT        18.1590   17.8440    6.3410 O      16946 WAT       0.0476
  16947 WAT        18.1590   17.8440    6.5910 O      16947 WAT       0.0502
  16948 WAT        18.1590   17.8440    6.8410 O      16948 WAT       0.0520
  16949 WAT        18.1590   17.8440    7.0910 O      16949 WAT       0.0467
  16950 WAT        18.1590   18.0940    2.5910 O      16950 WAT       0.0547
  16951 WAT        18.1590   18.0940    2.8410 O      16951 WAT       0.0525
  16952 WAT        18.1590   18.3440    2.5910 O      16952 WAT       0.0525
  16953 WAT        18.1590   18.3440    2.8410 O      16953 WAT       0.0496
  16954 WAT        18.1590   18.5940    2.5910 O      16954 WAT       0.0460
  16955 WAT        18.1590   20.3440   16.5910 O      16955 WAT       0.0628
  16956 WAT        18.1590   20.3440   16.8410 O      16956 WAT       0.0590
  16957 WAT        18.1590   20.5940   16.0910 O      16957 WAT       0.0699
  16958 WAT        18.1590   20.5940   16.3410 O      16958 WAT       0.1668
  16959 WAT        18.1590   20.5940   16.5910 O      16959 WAT       0.2469
  16960 WAT        18.1590   20.5940   16.8410 O      16960 WAT       0.2301
  16961 WAT        18.1590   20.5940   17.0910 O      16961 WAT       0.1357
  16962 WAT        18.1590   20.5940   17.3410 O      16962 WAT       0.0496
  16963 WAT        18.1590   20.8440   15.8410 O      16963 WAT       0.0450
  16964 WAT        18.1590   20.8440   16.0910 O      16964 WAT       0.1720
  16965 WAT        18.1590   20.8440   16.3410 O      16965 WAT       0.3986
  16966 WAT        18.1590   20.8440   16.5910 O      16966 WAT       0.5806
  16967 WAT        18.1590   20.8440   16.8410 O      16967 WAT       0.5351
  16968 WAT        18.1590   20.8440   17.0910 O      16968 WAT       0.3139
  16969 WAT        18.1590   20.8440   17.3410 O      16969 WAT       0.1176
  16970 WAT        18.1590   21.0940   15.8410 O      16970 WAT       0.0695
  16971 WAT        18.1590   21.0940   16.0910 O      16971 WAT       0.2548
  16972 WAT        18.1590   21.0940   16.3410 O      16972 WAT       0.5779
  16973 WAT        18.1590   21.0940   16.5910 O      16973 WAT       0.8282
  16974 WAT        18.1590   21.0940   16.8410 O      16974 WAT       0.7539
  16975 WAT        18.1590   21.0940   17.0910 O      16975 WAT       0.4389
  16976 WAT        18.1590   21.0940   17.3410 O      16976 WAT       0.1645
  16977 WAT        18.1590   21.3440   15.8410 O      16977 WAT       0.0638
  16978 WAT        18.1590   21.3440   16.0910 O      16978 WAT       0.2291
  16979 WAT        18.1590   21.3440   16.3410 O      16979 WAT       0.5086
  16980 WAT        18.1590   21.3440   16.5910 O      16980 WAT       0.7161
  16981 WAT        18.1590   21.3440   16.8410 O      16981 WAT       0.6433
  16982 WAT        18.1590   21.3440   17.0910 O      16982 WAT       0.3714
  16983 WAT        18.1590   21.3440   17.3410 O      16983 WAT       0.1387
  16984 WAT        18.1590   21.5940   16.0910 O      16984 WAT       0.1246
  16985 WAT        18.1590   21.5940   16.3410 O      16985 WAT       0.2714
  16986 WAT        18.1590   21.5940   16.5910 O      16986 WAT       0.3751
  16987 WAT        18.1590   21.5940   16.8410 O      16987 WAT       0.3323
  16988 WAT        18.1590   21.5940   17.0910 O      16988 WAT       0.1901
  16989 WAT        18.1590   21.5940   17.3410 O      16989 WAT       0.0699
  16990 WAT        18.1590   21.8440   16.3410 O      16990 WAT       0.0871
  16991 WAT        18.1590   21.8440   16.5910 O      16991 WAT       0.1188
  16992 WAT        18.1590   21.8440   16.8410 O      16992 WAT       0.1037
  16993 WAT        18.1590   21.8440   17.0910 O      16993 WAT       0.0580
  16994 WAT        18.1590   30.3440   21.8410 O      16994 WAT       0.0635
  16995 WAT        18.1590   30.3440   22.0910 O      16995 WAT       0.0673
  16996 WAT        18.1590   30.3440   22.3410 O      16996 WAT       0.0482
  16997 WAT        18.1590   30.5940   21.3410 O      16997 WAT       0.0653
  16998 WAT        18.1590   30.5940   21.5910 O      16998 WAT       0.1388
  16999 WAT        18.1590   30.5940   21.8410 O      16999 WAT       0.2079
  17000 WAT        18.1590   30.5940   22.0910 O      17000 WAT       0.2176
  17001 WAT        18.1590   30.5940   22.3410 O      17001 WAT       0.1570
  17002 WAT        18.1590   30.5940   22.5910 O      17002 WAT       0.0767
  17003 WAT        18.1590   30.8440   21.0910 O      17003 WAT       0.0482
  17004 WAT        18.1590   30.8440   21.3410 O      17004 WAT       0.1376
  17005 WAT        18.1590   30.8440   21.5910 O      17005 WAT       0.2833
  17006 WAT        18.1590   30.8440   21.8410 O      17006 WAT       0.4178
  17007 WAT        18.1590   30.8440   22.0910 O      17007 WAT       0.4347
  17008 WAT        18.1590   30.8440   22.3410 O      17008 WAT       0.3141
  17009 WAT        18.1590   30.8440   22.5910 O      17009 WAT       0.1555
  17010 WAT        18.1590   30.8440   22.8410 O      17010 WAT       0.0514
  17011 WAT        18.1590   31.0940   21.0910 O      17011 WAT       0.0639
  17012 WAT        18.1590   31.0940   21.3410 O      17012 WAT       0.1761
  17013 WAT        18.1590   31.0940   21.5910 O      17013 WAT       0.3553
  17014 WAT        18.1590   31.0940   21.8410 O      17014 WAT       0.5190
  17015 WAT        18.1590   31.0940   22.0910 O      17015 WAT       0.5389
  17016 WAT        18.1590   31.0940   22.3410 O      17016 WAT       0.3916
  17017 WAT        18.1590   31.0940   22.5910 O      17017 WAT       0.1963
  17018 WAT        18.1590   31.0940   22.8410 O      17018 WAT       0.0664
  17019 WAT        18.1590   31.3440   21.0910 O      17019 WAT       0.0510
  17020 WAT        18.1590   31.3440   21.3410 O      17020 WAT       0.1376
  17021 WAT        18.1590   31.3440   21.5910 O      17021 WAT       0.2737
  17022 WAT        18.1590   31.3440   21.8410 O      17022 WAT       0.3975
  17023 WAT        18.1590   31.3440   22.0910 O      17023 WAT       0.4140
  17024 WAT        18.1590   31.3440   22.3410 O      17024 WAT       0.3040
  17025 WAT        18.1590   31.3440   22.5910 O      17025 WAT       0.1549
  17026 WAT        18.1590   31.3440   22.8410 O      17026 WAT       0.0533
  17027 WAT        18.1590   31.5940   21.3410 O      17027 WAT       0.0649
  17028 WAT        18.1590   31.5940   21.5910 O      17028 WAT       0.1290
  17029 WAT        18.1590   31.5940   21.8410 O      17029 WAT       0.1873
  17030 WAT        18.1590   31.5940   22.0910 O      17030 WAT       0.1965
  17031 WAT        18.1590   31.5940   22.3410 O      17031 WAT       0.1464
  17032 WAT        18.1590   31.5940   22.5910 O      17032 WAT       0.0757
  17033 WAT        18.1590   31.8440   21.8410 O      17033 WAT       0.0535
  17034 WAT        18.1590   31.8440   22.0910 O      17034 WAT       0.0569
  17035 WAT        18.4090    8.3440   11.8410 O      17035 WAT       0.0471
  17036 WAT        18.4090    8.3440   12.0910 O      17036 WAT       0.0598
  17037 WAT        18.4090    8.3440   12.3410 O      17037 WAT       0.0657
  17038 WAT        18.4090    8.3440   12.5910 O      17038 WAT       0.0590
  17039 WAT        18.4090    8.5940   11.8410 O      17039 WAT       0.0487
  17040 WAT        18.4090    8.5940   12.0910 O      17040 WAT       0.0564
  17041 WAT        18.4090    8.5940   12.3410 O      17041 WAT       0.0567
  17042 WAT        18.4090    8.5940   12.5910 O      17042 WAT       0.0466
  17043 WAT        18.4090   11.3440    9.5910 O      17043 WAT       0.0464
  17044 WAT        18.4090   11.5940    9.3410 O      17044 WAT       0.0476
  17045 WAT        18.4090   11.5940    9.5910 O      17045 WAT       0.0530
  17046 WAT        18.4090   11.5940    9.8410 O      17046 WAT       0.0491
  17047 WAT        18.4090   11.8440    9.3410 O      17047 WAT       0.0533
  17048 WAT        18.4090   11.8440    9.5910 O      17048 WAT       0.0601
  17049 WAT        18.4090   11.8440    9.8410 O      17049 WAT       0.0560
  17050 WAT        18.4090   12.0940    9.3410 O      17050 WAT       0.0572
  17051 WAT        18.4090   12.0940    9.5910 O      17051 WAT       0.0646
  17052 WAT        18.4090   12.0940    9.8410 O      17052 WAT       0.0598
  17053 WAT        18.4090   12.3440    9.3410 O      17053 WAT       0.0563
  17054 WAT        18.4090   12.3440    9.5910 O      17054 WAT       0.0630
  17055 WAT        18.4090   12.3440    9.8410 O      17055 WAT       0.0572
  17056 WAT        18.4090   12.5940    9.3410 O      17056 WAT       0.0506
  17057 WAT        18.4090   12.5940    9.5910 O      17057 WAT       0.0548
  17058 WAT        18.4090   12.5940    9.8410 O      17058 WAT       0.0476
  17059 WAT        18.4090   14.0940    9.0910 O      17059 WAT       0.0454
  17060 WAT        18.4090   16.3440   10.0910 O      17060 WAT       0.0455
  17061 WAT        18.4090   16.3440   10.3410 O      17061 WAT       0.0624
  17062 WAT        18.4090   16.3440   10.5910 O      17062 WAT       0.0597
  17063 WAT        18.4090   16.5940   10.0910 O      17063 WAT       0.0793
  17064 WAT        18.4090   16.5940   10.3410 O      17064 WAT       0.1070
  17065 WAT        18.4090   16.5940   10.5910 O      17065 WAT       0.0988
  17066 WAT        18.4090   16.5940   10.8410 O      17066 WAT       0.0610
  17067 WAT        18.4090   16.8440    9.8410 O      17067 WAT       0.0528
  17068 WAT        18.4090   16.8440   10.0910 O      17068 WAT       0.1007
  17069 WAT        18.4090   16.8440   10.3410 O      17069 WAT       0.1331
  17070 WAT        18.4090   16.8440   10.5910 O      17070 WAT       0.1186
  17071 WAT        18.4090   16.8440   10.8410 O      17071 WAT       0.0697
  17072 WAT        18.4090   17.0940    9.8410 O      17072 WAT       0.0502
  17073 WAT        18.4090   17.0940   10.0910 O      17073 WAT       0.0939
  17074 WAT        18.4090   17.0940   10.3410 O      17074 WAT       0.1206
  17075 WAT        18.4090   17.0940   10.5910 O      17075 WAT       0.1032
  17076 WAT        18.4090   17.0940   10.8410 O      17076 WAT       0.0575
  17077 WAT        18.4090   17.3440    2.8410 O      17077 WAT       0.0452
  17078 WAT        18.4090   17.3440    6.5910 O      17078 WAT       0.0460
  17079 WAT        18.4090   17.3440   10.0910 O      17079 WAT       0.0654
  17080 WAT        18.4090   17.3440   10.3410 O      17080 WAT       0.0808
  17081 WAT        18.4090   17.3440   10.5910 O      17081 WAT       0.0658
  17082 WAT        18.4090   17.5940    2.5910 O      17082 WAT       0.0485
  17083 WAT        18.4090   17.5940    2.8410 O      17083 WAT       0.0488
  17084 WAT        18.4090   17.5940    6.3410 O      17084 WAT       0.0493
  17085 WAT        18.4090   17.5940    6.5910 O      17085 WAT       0.0553
  17086 WAT        18.4090   17.5940    6.8410 O      17086 WAT       0.0572
  17087 WAT        18.4090   17.5940    7.0910 O      17087 WAT       0.0492
  17088 WAT        18.4090   17.8440    2.5910 O      17088 WAT       0.0512
  17089 WAT        18.4090   17.8440    2.8410 O      17089 WAT       0.0491
  17090 WAT        18.4090   17.8440    6.5910 O      17090 WAT       0.0502
  17091 WAT        18.4090   17.8440    6.8410 O      17091 WAT       0.0561
  17092 WAT        18.4090   17.8440    7.0910 O      17092 WAT       0.0518
  17093 WAT        18.4090   18.0940    2.5910 O      17093 WAT       0.0498
  17094 WAT        18.4090   18.0940    2.8410 O      17094 WAT       0.0458
  17095 WAT        18.4090   20.3440   16.5910 O      17095 WAT       0.0651
  17096 WAT        18.4090   20.3440   16.8410 O      17096 WAT       0.0621
  17097 WAT        18.4090   20.5940   16.0910 O      17097 WAT       0.0699
  17098 WAT        18.4090   20.5940   16.3410 O      17098 WAT       0.1698
  17099 WAT        18.4090   20.5940   16.5910 O      17099 WAT       0.2559
  17100 WAT        18.4090   20.5940   16.8410 O      17100 WAT       0.2427
  17101 WAT        18.4090   20.5940   17.0910 O      17101 WAT       0.1455
  17102 WAT        18.4090   20.5940   17.3410 O      17102 WAT       0.0543
  17103 WAT        18.4090   20.8440   16.0910 O      17103 WAT       0.1712
  17104 WAT        18.4090   20.8440   16.3410 O      17104 WAT       0.4055
  17105 WAT        18.4090   20.8440   16.5910 O      17105 WAT       0.6028
  17106 WAT        18.4090   20.8440   16.8410 O      17106 WAT       0.5662
  17107 WAT        18.4090   20.8440   17.0910 O      17107 WAT       0.3382
  17108 WAT        18.4090   20.8440   17.3410 O      17108 WAT       0.1290
  17109 WAT        18.4090   21.0940   15.8410 O      17109 WAT       0.0672
  17110 WAT        18.4090   21.0940   16.0910 O      17110 WAT       0.2526
  17111 WAT        18.4090   21.0940   16.3410 O      17111 WAT       0.5869
  17112 WAT        18.4090   21.0940   16.5910 O      17112 WAT       0.8603
  17113 WAT        18.4090   21.0940   16.8410 O      17113 WAT       0.7998
  17114 WAT        18.4090   21.0940   17.0910 O      17114 WAT       0.4750
  17115 WAT        18.4090   21.0940   17.3410 O      17115 WAT       0.1815
  17116 WAT        18.4090   21.3440   15.8410 O      17116 WAT       0.0612
  17117 WAT        18.4090   21.3440   16.0910 O      17117 WAT       0.2258
  17118 WAT        18.4090   21.3440   16.3410 O      17118 WAT       0.5149
  17119 WAT        18.4090   21.3440   16.5910 O      17119 WAT       0.7433
  17120 WAT        18.4090   21.3440   16.8410 O      17120 WAT       0.6836
  17121 WAT        18.4090   21.3440   17.0910 O      17121 WAT       0.4034
  17122 WAT        18.4090   21.3440   17.3410 O      17122 WAT       0.1539
  17123 WAT        18.4090   21.5940   16.0910 O      17123 WAT       0.1220
  17124 WAT        18.4090   21.5940   16.3410 O      17124 WAT       0.2736
  17125 WAT        18.4090   21.5940   16.5910 O      17125 WAT       0.3887
  17126 WAT        18.4090   21.5940   16.8410 O      17126 WAT       0.3533
  17127 WAT        18.4090   21.5940   17.0910 O      17127 WAT       0.2071
  17128 WAT        18.4090   21.5940   17.3410 O      17128 WAT       0.0781
  17129 WAT        18.4090   21.8440   16.3410 O      17129 WAT       0.0874
  17130 WAT        18.4090   21.8440   16.5910 O      17130 WAT       0.1227
  17131 WAT        18.4090   21.8440   16.8410 O      17131 WAT       0.1102
  17132 WAT        18.4090   21.8440   17.0910 O      17132 WAT       0.0633
  17133 WAT        18.4090   30.3440   21.5910 O      17133 WAT       0.0497
  17134 WAT        18.4090   30.3440   21.8410 O      17134 WAT       0.0743
  17135 WAT        18.4090   30.3440   22.0910 O      17135 WAT       0.0772
  17136 WAT        18.4090   30.3440   22.3410 O      17136 WAT       0.0548
  17137 WAT        18.4090   30.5940   21.3410 O      17137 WAT       0.0821
  17138 WAT        18.4090   30.5940   21.5910 O      17138 WAT       0.1659
  17139 WAT        18.4090   30.5940   21.8410 O      17139 WAT       0.2411
  17140 WAT        18.4090   30.5940   22.0910 O      17140 WAT       0.2479
  17141 WAT        18.4090   30.5940   22.3410 O      17141 WAT       0.1772
  17142 WAT        18.4090   30.5940   22.5910 O      17142 WAT       0.0864
  17143 WAT        18.4090   30.8440   21.0910 O      17143 WAT       0.0627
  17144 WAT        18.4090   30.8440   21.3410 O      17144 WAT       0.1688
  17145 WAT        18.4090   30.8440   21.5910 O      17145 WAT       0.3338
  17146 WAT        18.4090   30.8440   21.8410 O      17146 WAT       0.4803
  17147 WAT        18.4090   30.8440   22.0910 O      17147 WAT       0.4922
  17148 WAT        18.4090   30.8440   22.3410 O      17148 WAT       0.3528
  17149 WAT        18.4090   30.8440   22.5910 O      17149 WAT       0.1742
  17150 WAT        18.4090   30.8440   22.8410 O      17150 WAT       0.0578
  17151 WAT        18.4090   31.0940   21.0910 O      17151 WAT       0.0805
  17152 WAT        18.4090   31.0940   21.3410 O      17152 WAT       0.2118
  17153 WAT        18.4090   31.0940   21.5910 O      17153 WAT       0.4136
  17154 WAT        18.4090   31.0940   21.8410 O      17154 WAT       0.5914
  17155 WAT        18.4090   31.0940   22.0910 O      17155 WAT       0.6065
  17156 WAT        18.4090   31.0940   22.3410 O      17156 WAT       0.4380
  17157 WAT        18.4090   31.0940   22.5910 O      17157 WAT       0.2193
  17158 WAT        18.4090   31.0940   22.8410 O      17158 WAT       0.0746
  17159 WAT        18.4090   31.3440   21.0910 O      17159 WAT       0.0625
  17160 WAT        18.4090   31.3440   21.3410 O      17160 WAT       0.1627
  17161 WAT        18.4090   31.3440   21.5910 O      17161 WAT       0.3150
  17162 WAT        18.4090   31.3440   21.8410 O      17162 WAT       0.4491
  17163 WAT        18.4090   31.3440   22.0910 O      17163 WAT       0.4628
  17164 WAT        18.4090   31.3440   22.3410 O      17164 WAT       0.3383
  17165 WAT        18.4090   31.3440   22.5910 O      17165 WAT       0.1724
  17166 WAT        18.4090   31.3440   22.8410 O      17166 WAT       0.0597
  17167 WAT        18.4090   31.5940   21.3410 O      17167 WAT       0.0756
  17168 WAT        18.4090   31.5940   21.5910 O      17168 WAT       0.1467
  17169 WAT        18.4090   31.5940   21.8410 O      17169 WAT       0.2097
  17170 WAT        18.4090   31.5940   22.0910 O      17170 WAT       0.2182
  17171 WAT        18.4090   31.5940   22.3410 O      17171 WAT       0.1621
  17172 WAT        18.4090   31.5940   22.5910 O      17172 WAT       0.0840
  17173 WAT        18.4090   31.8440   21.8410 O      17173 WAT       0.0595
  17174 WAT        18.4090   31.8440   22.0910 O      17174 WAT       0.0629
  17175 WAT        18.4090   31.8440   22.3410 O      17175 WAT       0.0471
  17176 WAT        18.6590    8.3440   11.8410 O      17176 WAT       0.0493
  17177 WAT        18.6590    8.3440   12.0910 O      17177 WAT       0.0647
  17178 WAT        18.6590    8.3440   12.3410 O      17178 WAT       0.0726
  17179 WAT        18.6590    8.3440   12.5910 O      17179 WAT       0.0659
  17180 WAT        18.6590    8.3440   12.8410 O      17180 WAT       0.0478
  17181 WAT        18.6590    8.5940   11.8410 O      17181 WAT       0.0502
  17182 WAT        18.6590    8.5940   12.0910 O      17182 WAT       0.0617
  17183 WAT        18.6590    8.5940   12.3410 O      17183 WAT       0.0649
  17184 WAT        18.6590    8.5940   12.5910 O      17184 WAT       0.0550
  17185 WAT        18.6590    8.8440   12.0910 O      17185 WAT       0.0476
  17186 WAT        18.6590    8.8440   12.3410 O      17186 WAT       0.0460
  17187 WAT        18.6590   11.3440    9.5910 O      17187 WAT       0.0453
  17188 WAT        18.6590   11.3440    9.8410 O      17188 WAT       0.0451
  17189 WAT        18.6590   11.5940    9.3410 O      17189 WAT       0.0467
  17190 WAT        18.6590   11.5940    9.5910 O      17190 WAT       0.0550
  17191 WAT        18.6590   11.5940    9.8410 O      17191 WAT       0.0554
  17192 WAT        18.6590   11.5940   10.0910 O      17192 WAT       0.0470
  17193 WAT        18.6590   11.8440    9.3410 O      17193 WAT       0.0545
  17194 WAT        18.6590   11.8440    9.5910 O      17194 WAT       0.0649
  17195 WAT        18.6590   11.8440    9.8410 O      17195 WAT       0.0655
  17196 WAT        18.6590   11.8440   10.0910 O      17196 WAT       0.0548
  17197 WAT        18.6590   12.0940    9.3410 O      17197 WAT       0.0599
  17198 WAT        18.6590   12.0940    9.5910 O      17198 WAT       0.0710
  17199 WAT        18.6590   12.0940    9.8410 O      17199 WAT       0.0706
  17200 WAT        18.6590   12.0940   10.0910 O      17200 WAT       0.0573
  17201 WAT        18.6590   12.3440    9.3410 O      17201 WAT       0.0597
  17202 WAT        18.6590   12.3440    9.5910 O      17202 WAT       0.0693
  17203 WAT        18.6590   12.3440    9.8410 O      17203 WAT       0.0667
  17204 WAT        18.6590   12.3440   10.0910 O      17204 WAT       0.0514
  17205 WAT        18.6590   12.5940    9.3410 O      17205 WAT       0.0535
  17206 WAT        18.6590   12.5940    9.5910 O      17206 WAT       0.0593
  17207 WAT        18.6590   12.5940    9.8410 O      17207 WAT       0.0537
  17208 WAT        18.6590   16.8440   10.3410 O      17208 WAT       0.0498
  17209 WAT        18.6590   17.3440    2.8410 O      17209 WAT       0.0457
  17210 WAT        18.6590   17.3440    6.5910 O      17210 WAT       0.0478
  17211 WAT        18.6590   17.3440    6.8410 O      17211 WAT       0.0461
  17212 WAT        18.6590   17.5940    2.5910 O      17212 WAT       0.0466
  17213 WAT        18.6590   17.5940    2.8410 O      17213 WAT       0.0459
  17214 WAT        18.6590   17.5940    6.3410 O      17214 WAT       0.0484
  17215 WAT        18.6590   17.5940    6.5910 O      17215 WAT       0.0597
  17216 WAT        18.6590   17.5940    6.8410 O      17216 WAT       0.0637
  17217 WAT        18.6590   17.5940    7.0910 O      17217 WAT       0.0541
  17218 WAT        18.6590   17.8440    2.5910 O      17218 WAT       0.0455
  17219 WAT        18.6590   17.8440    6.5910 O      17219 WAT       0.0532
  17220 WAT        18.6590   17.8440    6.8410 O      17220 WAT       0.0608
  17221 WAT        18.6590   17.8440    7.0910 O      17221 WAT       0.0551
  17222 WAT        18.6590   18.3440    8.3410 O      17222 WAT       0.0610
  17223 WAT        18.6590   18.3440    8.5910 O      17223 WAT       0.0731
  17224 WAT        18.6590   18.3440    8.8410 O      17224 WAT       0.0568
  17225 WAT        18.6590   18.5940    8.3410 O      17225 WAT       0.0664
  17226 WAT        18.6590   18.5940    8.5910 O      17226 WAT       0.0815
  17227 WAT        18.6590   18.5940    8.8410 O      17227 WAT       0.0635
  17228 WAT        18.6590   18.8440    8.3410 O      17228 WAT       0.0479
  17229 WAT        18.6590   18.8440    8.5910 O      17229 WAT       0.0607
  17230 WAT        18.6590   18.8440    8.8410 O      17230 WAT       0.0482
  17231 WAT        18.6590   20.5940   16.3410 O      17231 WAT       0.1073
  17232 WAT        18.6590   20.5940   16.5910 O      17232 WAT       0.1643
  17233 WAT        18.6590   20.5940   16.8410 O      17233 WAT       0.1578
  17234 WAT        18.6590   20.5940   17.0910 O      17234 WAT       0.0954
  17235 WAT        18.6590   20.8440   16.0910 O      17235 WAT       0.1066
  17236 WAT        18.6590   20.8440   16.3410 O      17236 WAT       0.2573
  17237 WAT        18.6590   20.8440   16.5910 O      17237 WAT       0.3887
  17238 WAT        18.6590   20.8440   16.8410 O      17238 WAT       0.3706
  17239 WAT        18.6590   20.8440   17.0910 O      17239 WAT       0.2243
  17240 WAT        18.6590   20.8440   17.3410 O      17240 WAT       0.0861
  17241 WAT        18.6590   21.0940   16.0910 O      17241 WAT       0.1572
  17242 WAT        18.6590   21.0940   16.3410 O      17242 WAT       0.3727
  17243 WAT        18.6590   21.0940   16.5910 O      17243 WAT       0.5561
  17244 WAT        18.6590   21.0940   16.8410 O      17244 WAT       0.5258
  17245 WAT        18.6590   21.0940   17.0910 O      17245 WAT       0.3171
  17246 WAT        18.6590   21.0940   17.3410 O      17246 WAT       0.1225
  17247 WAT        18.6590   21.3440   16.0910 O      17247 WAT       0.1400
  17248 WAT        18.6590   21.3440   16.3410 O      17248 WAT       0.3268
  17249 WAT        18.6590   21.3440   16.5910 O      17249 WAT       0.4813
  17250 WAT        18.6590   21.3440   16.8410 O      17250 WAT       0.4509
  17251 WAT        18.6590   21.3440   17.0910 O      17251 WAT       0.2708
  17252 WAT        18.6590   21.3440   17.3410 O      17252 WAT       0.1045
  17253 WAT        18.6590   21.5940   16.0910 O      17253 WAT       0.0748
  17254 WAT        18.6590   21.5940   16.3410 O      17254 WAT       0.1733
  17255 WAT        18.6590   21.5940   16.5910 O      17255 WAT       0.2518
  17256 WAT        18.6590   21.5940   16.8410 O      17256 WAT       0.2336
  17257 WAT        18.6590   21.5940   17.0910 O      17257 WAT       0.1394
  17258 WAT        18.6590   21.5940   17.3410 O      17258 WAT       0.0525
  17259 WAT        18.6590   21.8440   16.3410 O      17259 WAT       0.0543
  17260 WAT        18.6590   21.8440   16.5910 O      17260 WAT       0.0790
  17261 WAT        18.6590   21.8440   16.8410 O      17261 WAT       0.0724
  17262 WAT        18.6590   30.3440   21.8410 O      17262 WAT       0.0585
  17263 WAT        18.6590   30.3440   22.0910 O      17263 WAT       0.0566
  17264 WAT        18.6590   30.5940   21.3410 O      17264 WAT       0.0809
  17265 WAT        18.6590   30.5940   21.5910 O      17265 WAT       0.1408
  17266 WAT        18.6590   30.5940   21.8410 O      17266 WAT       0.1859
  17267 WAT        18.6590   30.5940   22.0910 O      17267 WAT       0.1808
  17268 WAT        18.6590   30.5940   22.3410 O      17268 WAT       0.1254
  17269 WAT        18.6590   30.5940   22.5910 O      17269 WAT       0.0600
  17270 WAT        18.6590   30.8440   21.0910 O      17270 WAT       0.0690
  17271 WAT        18.6590   30.8440   21.3410 O      17271 WAT       0.1567
  17272 WAT        18.6590   30.8440   21.5910 O      17272 WAT       0.2727
  17273 WAT        18.6590   30.8440   21.8410 O      17273 WAT       0.3617
  17274 WAT        18.6590   30.8440   22.0910 O      17274 WAT       0.3544
  17275 WAT        18.6590   30.8440   22.3410 O      17275 WAT       0.2483
  17276 WAT        18.6590   30.8440   22.5910 O      17276 WAT       0.1213
  17277 WAT        18.6590   31.0940   21.0910 O      17277 WAT       0.0825
  17278 WAT        18.6590   31.0940   21.3410 O      17278 WAT       0.1875
  17279 WAT        18.6590   31.0940   21.5910 O      17279 WAT       0.3277
  17280 WAT        18.6590   31.0940   21.8410 O      17280 WAT       0.4371
  17281 WAT        18.6590   31.0940   22.0910 O      17281 WAT       0.4316
  17282 WAT        18.6590   31.0940   22.3410 O      17282 WAT       0.3060
  17283 WAT        18.6590   31.0940   22.5910 O      17283 WAT       0.1522
  17284 WAT        18.6590   31.0940   22.8410 O      17284 WAT       0.0514
  17285 WAT        18.6590   31.3440   21.0910 O      17285 WAT       0.0604
  17286 WAT        18.6590   31.3440   21.3410 O      17286 WAT       0.1383
  17287 WAT        18.6590   31.3440   21.5910 O      17287 WAT       0.2433
  17288 WAT        18.6590   31.3440   21.8410 O      17288 WAT       0.3266
  17289 WAT        18.6590   31.3440   22.0910 O      17289 WAT       0.3257
  17290 WAT        18.6590   31.3440   22.3410 O      17290 WAT       0.2346
  17291 WAT        18.6590   31.3440   22.5910 O      17291 WAT       0.1189
  17292 WAT        18.6590   31.5940   21.3410 O      17292 WAT       0.0618
  17293 WAT        18.6590   31.5940   21.5910 O      17293 WAT       0.1106
  17294 WAT        18.6590   31.5940   21.8410 O      17294 WAT       0.1501
  17295 WAT        18.6590   31.5940   22.0910 O      17295 WAT       0.1518
  17296 WAT        18.6590   31.5940   22.3410 O      17296 WAT       0.1114
  17297 WAT        18.6590   31.5940   22.5910 O      17297 WAT       0.0572
  17298 WAT        18.9090    8.3440   11.8410 O      17298 WAT       0.0486
  17299 WAT        18.9090    8.3440   12.0910 O      17299 WAT       0.0650
  17300 WAT        18.9090    8.3440   12.3410 O      17300 WAT       0.0738
  17301 WAT        18.9090    8.3440   12.5910 O      17301 WAT       0.0673
  17302 WAT        18.9090    8.3440   12.8410 O      17302 WAT       0.0490
  17303 WAT        18.9090    8.3440   14.5910 O      17303 WAT       0.0476
  17304 WAT        18.9090    8.3440   14.8410 O      17304 WAT       0.0649
  17305 WAT        18.9090    8.3440   15.0910 O      17305 WAT       0.0658
  17306 WAT        18.9090    8.3440   15.3410 O      17306 WAT       0.0493
  17307 WAT        18.9090    8.5940   11.8410 O      17307 WAT       0.0489
  17308 WAT        18.9090    8.5940   12.0910 O      17308 WAT       0.0625
  17309 WAT        18.9090    8.5940   12.3410 O      17309 WAT       0.0679
  17310 WAT        18.9090    8.5940   12.5910 O      17310 WAT       0.0590
  17311 WAT        18.9090    8.5940   14.8410 O      17311 WAT       0.0480
  17312 WAT        18.9090    8.5940   15.0910 O      17312 WAT       0.0508
  17313 WAT        18.9090    8.8440   12.0910 O      17313 WAT       0.0486
  17314 WAT        18.9090    8.8440   12.3410 O      17314 WAT       0.0499
  17315 WAT        18.9090   10.5940   11.5910 O      17315 WAT       0.0515
  17316 WAT        18.9090   10.5940   11.8410 O      17316 WAT       0.0550
  17317 WAT        18.9090   10.8440   11.3410 O      17317 WAT       0.0459
  17318 WAT        18.9090   10.8440   11.5910 O      17318 WAT       0.0573
  17319 WAT        18.9090   10.8440   11.8410 O      17319 WAT       0.0562
  17320 WAT        18.9090   11.0940   11.3410 O      17320 WAT       0.0461
  17321 WAT        18.9090   11.0940   11.5910 O      17321 WAT       0.0519
  17322 WAT        18.9090   11.0940   11.8410 O      17322 WAT       0.0453
  17323 WAT        18.9090   11.5940    9.5910 O      17323 WAT       0.0538
  17324 WAT        18.9090   11.5940    9.8410 O      17324 WAT       0.0574
  17325 WAT        18.9090   11.5940   10.0910 O      17325 WAT       0.0536
  17326 WAT        18.9090   11.8440    9.3410 O      17326 WAT       0.0533
  17327 WAT        18.9090   11.8440    9.5910 O      17327 WAT       0.0655
  17328 WAT        18.9090   11.8440    9.8410 O      17328 WAT       0.0698
  17329 WAT        18.9090   11.8440   10.0910 O      17329 WAT       0.0635
  17330 WAT        18.9090   11.8440   10.3410 O      17330 WAT       0.0496
  17331 WAT        18.9090   12.0940    9.3410 O      17331 WAT       0.0598
  17332 WAT        18.9090   12.0940    9.5910 O      17332 WAT       0.0726
  17333 WAT        18.9090   12.0940    9.8410 O      17333 WAT       0.0755
  17334 WAT        18.9090   12.0940   10.0910 O      17334 WAT       0.0659
  17335 WAT        18.9090   12.0940   10.3410 O      17335 WAT       0.0478
  17336 WAT        18.9090   12.3440    9.0910 O      17336 WAT       0.0451
  17337 WAT        18.9090   12.3440    9.3410 O      17337 WAT       0.0605
  17338 WAT        18.9090   12.3440    9.5910 O      17338 WAT       0.0711
  17339 WAT        18.9090   12.3440    9.8410 O      17339 WAT       0.0706
  17340 WAT        18.9090   12.3440   10.0910 O      17340 WAT       0.0577
  17341 WAT        18.9090   12.5940    9.3410 O      17341 WAT       0.0549
  17342 WAT        18.9090   12.5940    9.5910 O      17342 WAT       0.0609
  17343 WAT        18.9090   12.5940    9.8410 O      17343 WAT       0.0560
  17344 WAT        18.9090   12.8440    9.5910 O      17344 WAT       0.0457
  17345 WAT        18.9090   17.3440    6.5910 O      17345 WAT       0.0495
  17346 WAT        18.9090   17.3440    6.8410 O      17346 WAT       0.0485
  17347 WAT        18.9090   17.5940    6.3410 O      17347 WAT       0.0489
  17348 WAT        18.9090   17.5940    6.5910 O      17348 WAT       0.0642
  17349 WAT        18.9090   17.5940    6.8410 O      17349 WAT       0.0683
  17350 WAT        18.9090   17.5940    7.0910 O      17350 WAT       0.0558
  17351 WAT        18.9090   17.8440    6.5910 O      17351 WAT       0.0570
  17352 WAT        18.9090   17.8440    6.8410 O      17352 WAT       0.0642
  17353 WAT        18.9090   17.8440    7.0910 O      17353 WAT       0.0553
  17354 WAT        18.9090   17.8440    8.5910 O      17354 WAT       0.0466
  17355 WAT        18.9090   18.0940    8.0910 O      17355 WAT       0.0533
  17356 WAT        18.9090   18.0940    8.3410 O      17356 WAT       0.0911
  17357 WAT        18.9090   18.0940    8.5910 O      17357 WAT       0.1050
  17358 WAT        18.9090   18.0940    8.8410 O      17358 WAT       0.0807
  17359 WAT        18.9090   18.3440    8.0910 O      17359 WAT       0.0834
  17360 WAT        18.9090   18.3440    8.3410 O      17360 WAT       0.1484
  17361 WAT        18.9090   18.3440    8.5910 O      17361 WAT       0.1715
  17362 WAT        18.9090   18.3440    8.8410 O      17362 WAT       0.1275
  17363 WAT        18.9090   18.3440    9.0910 O      17363 WAT       0.0613
  17364 WAT        18.9090   18.5940    8.0910 O      17364 WAT       0.0871
  17365 WAT        18.9090   18.5940    8.3410 O      17365 WAT       0.1611
  17366 WAT        18.9090   18.5940    8.5910 O      17366 WAT       0.1900
  17367 WAT        18.9090   18.5940    8.8410 O      17367 WAT       0.1421
  17368 WAT        18.9090   18.5940    9.0910 O      17368 WAT       0.0673
  17369 WAT        18.9090   18.8440    8.0910 O      17369 WAT       0.0597
  17370 WAT        18.9090   18.8440    8.3410 O      17370 WAT       0.1152
  17371 WAT        18.9090   18.8440    8.5910 O      17371 WAT       0.1399
  17372 WAT        18.9090   18.8440    8.8410 O      17372 WAT       0.1069
  17373 WAT        18.9090   18.8440    9.0910 O      17373 WAT       0.0511
  17374 WAT        18.9090   19.0940    8.3410 O      17374 WAT       0.0538
  17375 WAT        18.9090   19.0940    8.5910 O      17375 WAT       0.0680
  17376 WAT        18.9090   19.0940    8.8410 O      17376 WAT       0.0536
  17377 WAT        18.9090   20.5940   16.5910 O      17377 WAT       0.0645
  17378 WAT        18.9090   20.5940   16.8410 O      17378 WAT       0.0625
  17379 WAT        18.9090   20.8440   16.3410 O      17379 WAT       0.1014
  17380 WAT        18.9090   20.8440   16.5910 O      17380 WAT       0.1554
  17381 WAT        18.9090   20.8440   16.8410 O      17381 WAT       0.1497
  17382 WAT        18.9090   20.8440   17.0910 O      17382 WAT       0.0910
  17383 WAT        18.9090   21.0940   16.0910 O      17383 WAT       0.0603
  17384 WAT        18.9090   21.0940   16.3410 O      17384 WAT       0.1476
  17385 WAT        18.9090   21.0940   16.5910 O      17385 WAT       0.2235
  17386 WAT        18.9090   21.0940   16.8410 O      17386 WAT       0.2140
  17387 WAT        18.9090   21.0940   17.0910 O      17387 WAT       0.1301
  17388 WAT        18.9090   21.0940   17.3410 O      17388 WAT       0.0495
  17389 WAT        18.9090   21.3440   16.0910 O      17389 WAT       0.0533
  17390 WAT        18.9090   21.3440   16.3410 O      17390 WAT       0.1296
  17391 WAT        18.9090   21.3440   16.5910 O      17391 WAT       0.1941
  17392 WAT        18.9090   21.3440   16.8410 O      17392 WAT       0.1844
  17393 WAT        18.9090   21.3440   17.0910 O      17393 WAT       0.1117
  17394 WAT        18.9090   21.5940   16.3410 O      17394 WAT       0.0679
  17395 WAT        18.9090   21.5940   16.5910 O      17395 WAT       0.1014
  17396 WAT        18.9090   21.5940   16.8410 O      17396 WAT       0.0955
  17397 WAT        18.9090   21.5940   17.0910 O      17397 WAT       0.0568
  17398 WAT        18.9090   30.5940   21.0910 O      17398 WAT       0.0492
  17399 WAT        18.9090   30.5940   21.3410 O      17399 WAT       0.0878
  17400 WAT        18.9090   30.5940   21.5910 O      17400 WAT       0.1159
  17401 WAT        18.9090   30.5940   21.8410 O      17401 WAT       0.1188
  17402 WAT        18.9090   30.5940   22.0910 O      17402 WAT       0.0960
  17403 WAT        18.9090   30.5940   22.3410 O      17403 WAT       0.0591
  17404 WAT        18.9090   30.8440   21.0910 O      17404 WAT       0.0859
  17405 WAT        18.9090   30.8440   21.3410 O      17405 WAT       0.1530
  17406 WAT        18.9090   30.8440   21.5910 O      17406 WAT       0.2043
  17407 WAT        18.9090   30.8440   21.8410 O      17407 WAT       0.2150
  17408 WAT        18.9090   30.8440   22.0910 O      17408 WAT       0.1800
  17409 WAT        18.9090   30.8440   22.3410 O      17409 WAT       0.1152
  17410 WAT        18.9090   30.8440   22.5910 O      17410 WAT       0.0532
  17411 WAT        18.9090   31.0940   21.0910 O      17411 WAT       0.0933
  17412 WAT        18.9090   31.0940   21.3410 O      17412 WAT       0.1668
  17413 WAT        18.9090   31.0940   21.5910 O      17413 WAT       0.2265
  17414 WAT        18.9090   31.0940   21.8410 O      17414 WAT       0.2449
  17415 WAT        18.9090   31.0940   22.0910 O      17415 WAT       0.2112
  17416 WAT        18.9090   31.0940   22.3410 O      17416 WAT       0.1391
  17417 WAT        18.9090   31.0940   22.5910 O      17417 WAT       0.0664
  17418 WAT        18.9090   31.3440   21.0910 O      17418 WAT       0.0626
  17419 WAT        18.9090   31.3440   21.3410 O      17419 WAT       0.1129
  17420 WAT        18.9090   31.3440   21.5910 O      17420 WAT       0.1568
  17421 WAT        18.9090   31.3440   21.8410 O      17421 WAT       0.1743
  17422 WAT        18.9090   31.3440   22.0910 O      17422 WAT       0.1546
  17423 WAT        18.9090   31.3440   22.3410 O      17423 WAT       0.1045
  17424 WAT        18.9090   31.3440   22.5910 O      17424 WAT       0.0510
  17425 WAT        18.9090   31.5940   21.3410 O      17425 WAT       0.0463
  17426 WAT        18.9090   31.5940   21.5910 O      17426 WAT       0.0664
  17427 WAT        18.9090   31.5940   21.8410 O      17427 WAT       0.0764
  17428 WAT        18.9090   31.5940   22.0910 O      17428 WAT       0.0695
  17429 WAT        18.9090   31.5940   22.3410 O      17429 WAT       0.0479
  17430 WAT        19.1590    8.3440   12.0910 O      17430 WAT       0.0601
  17431 WAT        19.1590    8.3440   12.3410 O      17431 WAT       0.0684
  17432 WAT        19.1590    8.3440   12.5910 O      17432 WAT       0.0625
  17433 WAT        19.1590    8.3440   12.8410 O      17433 WAT       0.0459
  17434 WAT        19.1590    8.3440   14.3410 O      17434 WAT       0.0494
  17435 WAT        19.1590    8.3440   14.5910 O      17435 WAT       0.0863
  17436 WAT        19.1590    8.3440   14.8410 O      17436 WAT       0.1137
  17437 WAT        19.1590    8.3440   15.0910 O      17437 WAT       0.1098
  17438 WAT        19.1590    8.3440   15.3410 O      17438 WAT       0.0772
  17439 WAT        19.1590    8.5940   12.0910 O      17439 WAT       0.0579
  17440 WAT        19.1590    8.5940   12.3410 O      17440 WAT       0.0640
  17441 WAT        19.1590    8.5940   12.5910 O      17441 WAT       0.0569
  17442 WAT        19.1590    8.5940   14.5910 O      17442 WAT       0.0670
  17443 WAT        19.1590    8.5940   14.8410 O      17443 WAT       0.0920
  17444 WAT        19.1590    8.5940   15.0910 O      17444 WAT       0.0924
  17445 WAT        19.1590    8.5940   15.3410 O      17445 WAT       0.0676
  17446 WAT        19.1590    8.8440   12.0910 O      17446 WAT       0.0454
  17447 WAT        19.1590    8.8440   12.3410 O      17447 WAT       0.0487
  17448 WAT        19.1590    8.8440   14.8410 O      17448 WAT       0.0500
  17449 WAT        19.1590    8.8440   15.0910 O      17449 WAT       0.0517
  17450 WAT        19.1590   10.0940   11.8410 O      17450 WAT       0.0467
  17451 WAT        19.1590   10.0940   12.0910 O      17451 WAT       0.0476
  17452 WAT        19.1590   10.3440   11.5910 O      17452 WAT       0.0633
  17453 WAT        19.1590   10.3440   11.8410 O      17453 WAT       0.0778
  17454 WAT        19.1590   10.3440   12.0910 O      17454 WAT       0.0750
  17455 WAT        19.1590   10.3440   12.3410 O      17455 WAT       0.0551
  17456 WAT        19.1590   10.5940   11.3410 O      17456 WAT       0.0646
  17457 WAT        19.1590   10.5940   11.5910 O      17457 WAT       0.0941
  17458 WAT        19.1590   10.5940   11.8410 O      17458 WAT       0.1088
  17459 WAT        19.1590   10.5940   12.0910 O      17459 WAT       0.0958
  17460 WAT        19.1590   10.5940   12.3410 O      17460 WAT       0.0632
  17461 WAT        19.1590   10.8440   11.0910 O      17461 WAT       0.0528
  17462 WAT        19.1590   10.8440   11.3410 O      17462 WAT       0.0851
  17463 WAT        19.1590   10.8440   11.5910 O      17463 WAT       0.1152
  17464 WAT        19.1590   10.8440   11.8410 O      17464 WAT       0.1209
  17465 WAT        19.1590   10.8440   12.0910 O      17465 WAT       0.0952
  17466 WAT        19.1590   10.8440   12.3410 O      17466 WAT       0.0554
  17467 WAT        19.1590   11.0940   11.0910 O      17467 WAT       0.0628
  17468 WAT        19.1590   11.0940   11.3410 O      17468 WAT       0.0924
  17469 WAT        19.1590   11.0940   11.5910 O      17469 WAT       0.1123
  17470 WAT        19.1590   11.0940   11.8410 O      17470 WAT       0.1047
  17471 WAT        19.1590   11.0940   12.0910 O      17471 WAT       0.0725
  17472 WAT        19.1590   11.3440   10.8410 O      17472 WAT       0.0458
  17473 WAT        19.1590   11.3440   11.0910 O      17473 WAT       0.0618
  17474 WAT        19.1590   11.3440   11.3410 O      17474 WAT       0.0797
  17475 WAT        19.1590   11.3440   11.5910 O      17475 WAT       0.0851
  17476 WAT        19.1590   11.3440   11.8410 O      17476 WAT       0.0695
  17477 WAT        19.1590   11.5940    9.5910 O      17477 WAT       0.0501
  17478 WAT        19.1590   11.5940    9.8410 O      17478 WAT       0.0548
  17479 WAT        19.1590   11.5940   10.0910 O      17479 WAT       0.0540
  17480 WAT        19.1590   11.5940   10.3410 O      17480 WAT       0.0489
  17481 WAT        19.1590   11.5940   11.0910 O      17481 WAT       0.0485
  17482 WAT        19.1590   11.5940   11.3410 O      17482 WAT       0.0530
  17483 WAT        19.1590   11.5940   11.5910 O      17483 WAT       0.0488
  17484 WAT        19.1590   11.8440    9.3410 O      17484 WAT       0.0507
  17485 WAT        19.1590   11.8440    9.5910 O      17485 WAT       0.0625
  17486 WAT        19.1590   11.8440    9.8410 O      17486 WAT       0.0681
  17487 WAT        19.1590   11.8440   10.0910 O      17487 WAT       0.0651
  17488 WAT        19.1590   11.8440   10.3410 O      17488 WAT       0.0550
  17489 WAT        19.1590   12.0940    9.3410 O      17489 WAT       0.0574
  17490 WAT        19.1590   12.0940    9.5910 O      17490 WAT       0.0701
  17491 WAT        19.1590   12.0940    9.8410 O      17491 WAT       0.0743
  17492 WAT        19.1590   12.0940   10.0910 O      17492 WAT       0.0674
  17493 WAT        19.1590   12.0940   10.3410 O      17493 WAT       0.0521
  17494 WAT        19.1590   12.3440    9.3410 O      17494 WAT       0.0588
  17495 WAT        19.1590   12.3440    9.5910 O      17495 WAT       0.0692
  17496 WAT        19.1590   12.3440    9.8410 O      17496 WAT       0.0694
  17497 WAT        19.1590   12.3440   10.0910 O      17497 WAT       0.0582
  17498 WAT        19.1590   12.5940    9.3410 O      17498 WAT       0.0544
  17499 WAT        19.1590   12.5940    9.5910 O      17499 WAT       0.0599
  17500 WAT        19.1590   12.5940    9.8410 O      17500 WAT       0.0549
  17501 WAT        19.1590   12.8440    9.3410 O      17501 WAT       0.0455
  17502 WAT        19.1590   12.8440    9.5910 O      17502 WAT       0.0454
  17503 WAT        19.1590   14.5940    9.0910 O      17503 WAT       0.0456
  17504 WAT        19.1590   17.0940    9.3410 O      17504 WAT       0.0478
  17505 WAT        19.1590   17.3440    6.5910 O      17505 WAT       0.0491
  17506 WAT        19.1590   17.3440    6.8410 O      17506 WAT       0.0478
  17507 WAT        19.1590   17.3440    9.0910 O      17507 WAT       0.0486
  17508 WAT        19.1590   17.3440    9.3410 O      17508 WAT       0.0512
  17509 WAT        19.1590   17.5940    6.3410 O      17509 WAT       0.0488
  17510 WAT        19.1590   17.5940    6.5910 O      17510 WAT       0.0656
  17511 WAT        19.1590   17.5940    6.8410 O      17511 WAT       0.0683
  17512 WAT        19.1590   17.5940    7.0910 O      17512 WAT       0.0530
  17513 WAT        19.1590   17.8440    6.5910 O      17513 WAT       0.0588
  17514 WAT        19.1590   17.8440    6.8410 O      17514 WAT       0.0641
  17515 WAT        19.1590   17.8440    7.0910 O      17515 WAT       0.0521
  17516 WAT        19.1590   17.8440    8.3410 O      17516 WAT       0.0681
  17517 WAT        19.1590   17.8440    8.5910 O      17517 WAT       0.0791
  17518 WAT        19.1590   17.8440    8.8410 O      17518 WAT       0.0669
  17519 WAT        19.1590   17.8440    9.0910 O      17519 WAT       0.0451
  17520 WAT        19.1590   18.0940    8.0910 O      17520 WAT       0.0970
  17521 WAT        19.1590   18.0940    8.3410 O      17521 WAT       0.1610
  17522 WAT        19.1590   18.0940    8.5910 O      17522 WAT       0.1767
  17523 WAT        19.1590   18.0940    8.8410 O      17523 WAT       0.1284
  17524 WAT        19.1590   18.0940    9.0910 O      17524 WAT       0.0636
  17525 WAT        19.1590   18.3440    7.8410 O      17525 WAT       0.0594
  17526 WAT        19.1590   18.3440    8.0910 O      17526 WAT       0.1528
  17527 WAT        19.1590   18.3440    8.3410 O      17527 WAT       0.2600
  17528 WAT        19.1590   18.3440    8.5910 O      17528 WAT       0.2857
  17529 WAT        19.1590   18.3440    8.8410 O      17529 WAT       0.2016
  17530 WAT        19.1590   18.3440    9.0910 O      17530 WAT       0.0915
  17531 WAT        19.1590   18.5940    7.8410 O      17531 WAT       0.0582
  17532 WAT        19.1590   18.5940    8.0910 O      17532 WAT       0.1587
  17533 WAT        19.1590   18.5940    8.3410 O      17533 WAT       0.2784
  17534 WAT        19.1590   18.5940    8.5910 O      17534 WAT       0.3117
  17535 WAT        19.1590   18.5940    8.8410 O      17535 WAT       0.2216
  17536 WAT        19.1590   18.5940    9.0910 O      17536 WAT       0.0996
  17537 WAT        19.1590   18.8440    8.0910 O      17537 WAT       0.1076
  17538 WAT        19.1590   18.8440    8.3410 O      17538 WAT       0.1954
  17539 WAT        19.1590   18.8440    8.5910 O      17539 WAT       0.2248
  17540 WAT        19.1590   18.8440    8.8410 O      17540 WAT       0.1632
  17541 WAT        19.1590   18.8440    9.0910 O      17541 WAT       0.0743
  17542 WAT        19.1590   19.0940    8.0910 O      17542 WAT       0.0470
  17543 WAT        19.1590   19.0940    8.3410 O      17543 WAT       0.0894
  17544 WAT        19.1590   19.0940    8.5910 O      17544 WAT       0.1066
  17545 WAT        19.1590   19.0940    8.8410 O      17545 WAT       0.0796
  17546 WAT        19.1590   21.0940   16.5910 O      17546 WAT       0.0545
  17547 WAT        19.1590   21.0940   16.8410 O      17547 WAT       0.0525
  17548 WAT        19.1590   21.3440   16.5910 O      17548 WAT       0.0471
  17549 WAT        19.1590   21.3440   16.8410 O      17549 WAT       0.0451
  17550 WAT        19.1590   30.3440   21.5910 O      17550 WAT       0.0462
  17551 WAT        19.1590   30.5940   21.0910 O      17551 WAT       0.0642
  17552 WAT        19.1590   30.5940   21.3410 O      17552 WAT       0.1031
  17553 WAT        19.1590   30.5940   21.5910 O      17553 WAT       0.1135
  17554 WAT        19.1590   30.5940   21.8410 O      17554 WAT       0.0891
  17555 WAT        19.1590   30.5940   22.0910 O      17555 WAT       0.0519
  17556 WAT        19.1590   30.8440   21.0910 O      17556 WAT       0.1044
  17557 WAT        19.1590   30.8440   21.3410 O      17557 WAT       0.1644
  17558 WAT        19.1590   30.8440   21.5910 O      17558 WAT       0.1797
  17559 WAT        19.1590   30.8440   21.8410 O      17559 WAT       0.1426
  17560 WAT        19.1590   30.8440   22.0910 O      17560 WAT       0.0870
  17561 WAT        19.1590   31.0940   20.8410 O      17561 WAT       0.0464
  17562 WAT        19.1590   31.0940   21.0910 O      17562 WAT       0.1066
  17563 WAT        19.1590   31.0940   21.3410 O      17563 WAT       0.1655
  17564 WAT        19.1590   31.0940   21.5910 O      17564 WAT       0.1801
  17565 WAT        19.1590   31.0940   21.8410 O      17565 WAT       0.1451
  17566 WAT        19.1590   31.0940   22.0910 O      17566 WAT       0.0921
  17567 WAT        19.1590   31.0940   22.3410 O      17567 WAT       0.0471
  17568 WAT        19.1590   31.3440   21.0910 O      17568 WAT       0.0677
  17569 WAT        19.1590   31.3440   21.3410 O      17569 WAT       0.1038
  17570 WAT        19.1590   31.3440   21.5910 O      17570 WAT       0.1129
  17571 WAT        19.1590   31.3440   21.8410 O      17571 WAT       0.0927
  17572 WAT        19.1590   31.3440   22.0910 O      17572 WAT       0.0611
  17573 WAT        19.4090    8.3440   12.0910 O      17573 WAT       0.0526
  17574 WAT        19.4090    8.3440   12.3410 O      17574 WAT       0.0595
  17575 WAT        19.4090    8.3440   12.5910 O      17575 WAT       0.0545
  17576 WAT        19.4090    8.3440   14.3410 O      17576 WAT       0.0771
  17577 WAT        19.4090    8.3440   14.5910 O      17577 WAT       0.1327
  17578 WAT        19.4090    8.3440   14.8410 O      17578 WAT       0.1695
  17579 WAT        19.4090    8.3440   15.0910 O      17579 WAT       0.1571
  17580 WAT        19.4090    8.3440   15.3410 O      17580 WAT       0.1047
  17581 WAT        19.4090    8.3440   15.5910 O      17581 WAT       0.0502
  17582 WAT        19.4090    8.5940   12.0910 O      17582 WAT       0.0502
  17583 WAT        19.4090    8.5940   12.3410 O      17583 WAT       0.0560
  17584 WAT        19.4090    8.5940   12.5910 O      17584 WAT       0.0507
  17585 WAT        19.4090    8.5940   14.3410 O      17585 WAT       0.0625
  17586 WAT        19.4090    8.5940   14.5910 O      17586 WAT       0.1111
  17587 WAT        19.4090    8.5940   14.8410 O      17587 WAT       0.1473
  17588 WAT        19.4090    8.5940   15.0910 O      17588 WAT       0.1414
  17589 WAT        19.4090    8.5940   15.3410 O      17589 WAT       0.0977
  17590 WAT        19.4090    8.5940   15.5910 O      17590 WAT       0.0487
  17591 WAT        19.4090    8.5940   26.5910 O      17591 WAT       0.0505
  17592 WAT        19.4090    8.5940   26.8410 O      17592 WAT       0.0552
  17593 WAT        19.4090    8.5940   27.0910 O      17593 WAT       0.0477
  17594 WAT        19.4090    8.8440   14.5910 O      17594 WAT       0.0630
  17595 WAT        19.4090    8.8440   14.8410 O      17595 WAT       0.0853
  17596 WAT        19.4090    8.8440   15.0910 O      17596 WAT       0.0841
  17597 WAT        19.4090    8.8440   15.3410 O      17597 WAT       0.0597
  17598 WAT        19.4090    8.8440   26.3410 O      17598 WAT       0.0539
  17599 WAT        19.4090    8.8440   26.5910 O      17599 WAT       0.0779
  17600 WAT        19.4090    8.8440   26.8410 O      17600 WAT       0.0877
  17601 WAT        19.4090    8.8440   27.0910 O      17601 WAT       0.0770
  17602 WAT        19.4090    8.8440   27.3410 O      17602 WAT       0.0519
  17603 WAT        19.4090    9.0940   26.3410 O      17603 WAT       0.0534
  17604 WAT        19.4090    9.0940   26.5910 O      17604 WAT       0.0796
  17605 WAT        19.4090    9.0940   26.8410 O      17605 WAT       0.0913
  17606 WAT        19.4090    9.0940   27.0910 O      17606 WAT       0.0813
  17607 WAT        19.4090    9.0940   27.3410 O      17607 WAT       0.0556
  17608 WAT        19.4090    9.3440   26.5910 O      17608 WAT       0.0524
  17609 WAT        19.4090    9.3440   26.8410 O      17609 WAT       0.0608
  17610 WAT        19.4090    9.3440   27.0910 O      17610 WAT       0.0548
  17611 WAT        19.4090   10.0940   11.8410 O      17611 WAT       0.0578
  17612 WAT        19.4090   10.0940   12.0910 O      17612 WAT       0.0656
  17613 WAT        19.4090   10.0940   12.3410 O      17613 WAT       0.0585
  17614 WAT        19.4090   10.3440   11.3410 O      17614 WAT       0.0482
  17615 WAT        19.4090   10.3440   11.5910 O      17615 WAT       0.0792
  17616 WAT        19.4090   10.3440   11.8410 O      17616 WAT       0.1066
  17617 WAT        19.4090   10.3440   12.0910 O      17617 WAT       0.1122
  17618 WAT        19.4090   10.3440   12.3410 O      17618 WAT       0.0908
  17619 WAT        19.4090   10.3440   12.5910 O      17619 WAT       0.0561
  17620 WAT        19.4090   10.5940   11.3410 O      17620 WAT       0.0822
  17621 WAT        19.4090   10.5940   11.5910 O      17621 WAT       0.1298
  17622 WAT        19.4090   10.5940   11.8410 O      17622 WAT       0.1619
  17623 WAT        19.4090   10.5940   12.0910 O      17623 WAT       0.1544
  17624 WAT        19.4090   10.5940   12.3410 O      17624 WAT       0.1115
  17625 WAT        19.4090   10.5940   12.5910 O      17625 WAT       0.0609
  17626 WAT        19.4090   10.8440   11.0910 O      17626 WAT       0.0666
  17627 WAT        19.4090   10.8440   11.3410 O      17627 WAT       0.1179
  17628 WAT        19.4090   10.8440   11.5910 O      17628 WAT       0.1717
  17629 WAT        19.4090   10.8440   11.8410 O      17629 WAT       0.1934
  17630 WAT        19.4090   10.8440   12.0910 O      17630 WAT       0.1643
  17631 WAT        19.4090   10.8440   12.3410 O      17631 WAT       0.1047
  17632 WAT        19.4090   10.8440   12.5910 O      17632 WAT       0.0499
  17633 WAT        19.4090   11.0940   10.8410 O      17633 WAT       0.0479
  17634 WAT        19.4090   11.0940   11.0910 O      17634 WAT       0.0840
  17635 WAT        19.4090   11.0940   11.3410 O      17635 WAT       0.1355
  17636 WAT        19.4090   11.0940   11.5910 O      17636 WAT       0.1774
  17637 WAT        19.4090   11.0940   11.8410 O      17637 WAT       0.1779
  17638 WAT        19.4090   11.0940   12.0910 O      17638 WAT       0.1333
  17639 WAT        19.4090   11.0940   12.3410 O      17639 WAT       0.0742
  17640 WAT        19.4090   11.3440   10.8410 O      17640 WAT       0.0550
  17641 WAT        19.4090   11.3440   11.0910 O      17641 WAT       0.0846
  17642 WAT        19.4090   11.3440   11.3410 O      17642 WAT       0.1204
  17643 WAT        19.4090   11.3440   11.5910 O      17643 WAT       0.1394
  17644 WAT        19.4090   11.3440   11.8410 O      17644 WAT       0.1233
  17645 WAT        19.4090   11.3440   12.0910 O      17645 WAT       0.0810
  17646 WAT        19.4090   11.5940    9.5910 O      17646 WAT       0.0453
  17647 WAT        19.4090   11.5940    9.8410 O      17647 WAT       0.0492
  17648 WAT        19.4090   11.5940   10.0910 O      17648 WAT       0.0490
  17649 WAT        19.4090   11.5940   10.3410 O      17649 WAT       0.0463
  17650 WAT        19.4090   11.5940   10.5910 O      17650 WAT       0.0454
  17651 WAT        19.4090   11.5940   10.8410 O      17651 WAT       0.0517
  17652 WAT        19.4090   11.5940   11.0910 O      17652 WAT       0.0661
  17653 WAT        19.4090   11.5940   11.3410 O      17653 WAT       0.0805
  17654 WAT        19.4090   11.5940   11.5910 O      17654 WAT       0.0812
  17655 WAT        19.4090   11.5940   11.8410 O      17655 WAT       0.0628
  17656 WAT        19.4090   11.8440    9.3410 O      17656 WAT       0.0474
  17657 WAT        19.4090   11.8440    9.5910 O      17657 WAT       0.0577
  17658 WAT        19.4090   11.8440    9.8410 O      17658 WAT       0.0625
  17659 WAT        19.4090   11.8440   10.0910 O      17659 WAT       0.0603
  17660 WAT        19.4090   11.8440   10.3410 O      17660 WAT       0.0525
  17661 WAT        19.4090   12.0940    9.3410 O      17661 WAT       0.0538
  17662 WAT        19.4090   12.0940    9.5910 O      17662 WAT       0.0653
  17663 WAT        19.4090   12.0940    9.8410 O      17663 WAT       0.0691
  17664 WAT        19.4090   12.0940   10.0910 O      17664 WAT       0.0630
  17665 WAT        19.4090   12.0940   10.3410 O      17665 WAT       0.0496
  17666 WAT        19.4090   12.3440    9.3410 O      17666 WAT       0.0554
  17667 WAT        19.4090   12.3440    9.5910 O      17667 WAT       0.0650
  17668 WAT        19.4090   12.3440    9.8410 O      17668 WAT       0.0650
  17669 WAT        19.4090   12.3440   10.0910 O      17669 WAT       0.0544
  17670 WAT        19.4090   12.5940    9.3410 O      17670 WAT       0.0519
  17671 WAT        19.4090   12.5940    9.5910 O      17671 WAT       0.0568
  17672 WAT        19.4090   12.5940    9.8410 O      17672 WAT       0.0517
  17673 WAT        19.4090   14.3440    8.8410 O      17673 WAT       0.0465
  17674 WAT        19.4090   14.3440    9.0910 O      17674 WAT       0.0451
  17675 WAT        19.4090   14.5940    8.8410 O      17675 WAT       0.0482
  17676 WAT        19.4090   14.5940    9.0910 O      17676 WAT       0.0481
  17677 WAT        19.4090   16.3440    4.3410 O      17677 WAT       0.0477
  17678 WAT        19.4090   16.3440    4.5910 O      17678 WAT       0.0470
  17679 WAT        19.4090   16.5940    4.0910 O      17679 WAT       0.0472
  17680 WAT        19.4090   16.5940    4.3410 O      17680 WAT       0.0483
  17681 WAT        19.4090   16.5940    4.5910 O      17681 WAT       0.0456
  17682 WAT        19.4090   16.8440    9.0910 O      17682 WAT       0.0485
  17683 WAT        19.4090   16.8440    9.3410 O      17683 WAT       0.0595
  17684 WAT        19.4090   16.8440    9.5910 O      17684 WAT       0.0494
  17685 WAT        19.4090   17.0940    9.0910 O      17685 WAT       0.0739
  17686 WAT        19.4090   17.0940    9.3410 O      17686 WAT       0.0851
  17687 WAT        19.4090   17.0940    9.5910 O      17687 WAT       0.0664
  17688 WAT        19.4090   17.3440    6.5910 O      17688 WAT       0.0461
  17689 WAT        19.4090   17.3440    8.8410 O      17689 WAT       0.0534
  17690 WAT        19.4090   17.3440    9.0910 O      17690 WAT       0.0806
  17691 WAT        19.4090   17.3440    9.3410 O      17691 WAT       0.0852
  17692 WAT        19.4090   17.3440    9.5910 O      17692 WAT       0.0618
  17693 WAT        19.4090   17.5940    6.3410 O      17693 WAT       0.0471
  17694 WAT        19.4090   17.5940    6.5910 O      17694 WAT       0.0633
  17695 WAT        19.4090   17.5940    6.8410 O      17695 WAT       0.0638
  17696 WAT        19.4090   17.5940    7.0910 O      17696 WAT       0.0471
  17697 WAT        19.4090   17.5940    8.8410 O      17697 WAT       0.0580
  17698 WAT        19.4090   17.5940    9.0910 O      17698 WAT       0.0665
  17699 WAT        19.4090   17.5940    9.3410 O      17699 WAT       0.0604
  17700 WAT        19.4090   17.8440    6.5910 O      17700 WAT       0.0582
  17701 WAT        19.4090   17.8440    6.8410 O      17701 WAT       0.0613
  17702 WAT        19.4090   17.8440    7.0910 O      17702 WAT       0.0472
  17703 WAT        19.4090   17.8440    8.0910 O      17703 WAT       0.0580
  17704 WAT        19.4090   17.8440    8.3410 O      17704 WAT       0.0923
  17705 WAT        19.4090   17.8440    8.5910 O      17705 WAT       0.1024
  17706 WAT        19.4090   17.8440    8.8410 O      17706 WAT       0.0840
  17707 WAT        19.4090   17.8440    9.0910 O      17707 WAT       0.0568
  17708 WAT        19.4090   18.0940    7.8410 O      17708 WAT       0.0588
  17709 WAT        19.4090   18.0940    8.0910 O      17709 WAT       0.1361
  17710 WAT        19.4090   18.0940    8.3410 O      17710 WAT       0.2141
  17711 WAT        19.4090   18.0940    8.5910 O      17711 WAT       0.2218
  17712 WAT        19.4090   18.0940    8.8410 O      17712 WAT       0.1524
  17713 WAT        19.4090   18.0940    9.0910 O      17713 WAT       0.0719
  17714 WAT        19.4090   18.3440    7.8410 O      17714 WAT       0.0873
  17715 WAT        19.4090   18.3440    8.0910 O      17715 WAT       0.2125
  17716 WAT        19.4090   18.3440    8.3410 O      17716 WAT       0.3400
  17717 WAT        19.4090   18.3440    8.5910 O      17717 WAT       0.3513
  17718 WAT        19.4090   18.3440    8.8410 O      17718 WAT       0.2331
  17719 WAT        19.4090   18.3440    9.0910 O      17719 WAT       0.0996
  17720 WAT        19.4090   18.5940    7.8410 O      17720 WAT       0.0859
  17721 WAT        19.4090   18.5940    8.0910 O      17721 WAT       0.2178
  17722 WAT        19.4090   18.5940    8.3410 O      17722 WAT       0.3570
  17723 WAT        19.4090   18.5940    8.5910 O      17723 WAT       0.3745
  17724 WAT        19.4090   18.5940    8.8410 O      17724 WAT       0.2499
  17725 WAT        19.4090   18.5940    9.0910 O      17725 WAT       0.1056
  17726 WAT        19.4090   18.8440    7.8410 O      17726 WAT       0.0549
  17727 WAT        19.4090   18.8440    8.0910 O      17727 WAT       0.1451
  17728 WAT        19.4090   18.8440    8.3410 O      17728 WAT       0.2447
  17729 WAT        19.4090   18.8440    8.5910 O      17729 WAT       0.2628
  17730 WAT        19.4090   18.8440    8.8410 O      17730 WAT       0.1788
  17731 WAT        19.4090   18.8440    9.0910 O      17731 WAT       0.0764
  17732 WAT        19.4090   19.0940    8.0910 O      17732 WAT       0.0623
  17733 WAT        19.4090   19.0940    8.3410 O      17733 WAT       0.1090
  17734 WAT        19.4090   19.0940    8.5910 O      17734 WAT       0.1207
  17735 WAT        19.4090   19.0940    8.8410 O      17735 WAT       0.0842
  17736 WAT        19.4090   30.5940   21.0910 O      17736 WAT       0.0589
  17737 WAT        19.4090   30.5940   21.3410 O      17737 WAT       0.0938
  17738 WAT        19.4090   30.5940   21.5910 O      17738 WAT       0.0999
  17739 WAT        19.4090   30.5940   21.8410 O      17739 WAT       0.0720
  17740 WAT        19.4090   30.8440   21.0910 O      17740 WAT       0.0917
  17741 WAT        19.4090   30.8440   21.3410 O      17741 WAT       0.1415
  17742 WAT        19.4090   30.8440   21.5910 O      17742 WAT       0.1463
  17743 WAT        19.4090   30.8440   21.8410 O      17743 WAT       0.1030
  17744 WAT        19.4090   30.8440   22.0910 O      17744 WAT       0.0503
  17745 WAT        19.4090   31.0940   21.0910 O      17745 WAT       0.0904
  17746 WAT        19.4090   31.0940   21.3410 O      17746 WAT       0.1361
  17747 WAT        19.4090   31.0940   21.5910 O      17747 WAT       0.1375
  17748 WAT        19.4090   31.0940   21.8410 O      17748 WAT       0.0952
  17749 WAT        19.4090   31.0940   22.0910 O      17749 WAT       0.0463
  17750 WAT        19.4090   31.3440   21.0910 O      17750 WAT       0.0558
  17751 WAT        19.4090   31.3440   21.3410 O      17751 WAT       0.0822
  17752 WAT        19.4090   31.3440   21.5910 O      17752 WAT       0.0814
  17753 WAT        19.4090   31.3440   21.8410 O      17753 WAT       0.0554
  17754 WAT        19.6590    8.3440   12.0910 O      17754 WAT       0.0457
  17755 WAT        19.6590    8.3440   12.3410 O      17755 WAT       0.0511
  17756 WAT        19.6590    8.3440   12.5910 O      17756 WAT       0.0468
  17757 WAT        19.6590    8.3440   14.0910 O      17757 WAT       0.0469
  17758 WAT        19.6590    8.3440   14.3410 O      17758 WAT       0.1023
  17759 WAT        19.6590    8.3440   14.5910 O      17759 WAT       0.1735
  17760 WAT        19.6590    8.3440   14.8410 O      17760 WAT       0.2165
  17761 WAT        19.6590    8.3440   15.0910 O      17761 WAT       0.1943
  17762 WAT        19.6590    8.3440   15.3410 O      17762 WAT       0.1241
  17763 WAT        19.6590    8.3440   15.5910 O      17763 WAT       0.0563
  17764 WAT        19.6590    8.5940   12.3410 O      17764 WAT       0.0476
  17765 WAT        19.6590    8.5940   14.3410 O      17765 WAT       0.0880
  17766 WAT        19.6590    8.5940   14.5910 O      17766 WAT       0.1538
  17767 WAT        19.6590    8.5940   14.8410 O      17767 WAT       0.1986
  17768 WAT        19.6590    8.5940   15.0910 O      17768 WAT       0.1846
  17769 WAT        19.6590    8.5940   15.3410 O      17769 WAT       0.1222
  17770 WAT        19.6590    8.5940   15.5910 O      17770 WAT       0.0576
  17771 WAT        19.6590    8.5940   26.3410 O      17771 WAT       0.0497
  17772 WAT        19.6590    8.5940   26.5910 O      17772 WAT       0.0722
  17773 WAT        19.6590    8.5940   26.8410 O      17773 WAT       0.0846
  17774 WAT        19.6590    8.5940   27.0910 O      17774 WAT       0.0783
  17775 WAT        19.6590    8.5940   27.3410 O      17775 WAT       0.0555
  17776 WAT        19.6590    8.8440   14.3410 O      17776 WAT       0.0523
  17777 WAT        19.6590    8.8440   14.5910 O      17777 WAT       0.0919
  17778 WAT        19.6590    8.8440   14.8410 O      17778 WAT       0.1209
  17779 WAT        19.6590    8.8440   15.0910 O      17779 WAT       0.1152
  17780 WAT        19.6590    8.8440   15.3410 O      17780 WAT       0.0784
  17781 WAT        19.6590    8.8440   26.3410 O      17781 WAT       0.0726
  17782 WAT        19.6590    8.8440   26.5910 O      17782 WAT       0.1101
  17783 WAT        19.6590    8.8440   26.8410 O      17783 WAT       0.1315
  17784 WAT        19.6590    8.8440   27.0910 O      17784 WAT       0.1228
  17785 WAT        19.6590    8.8440   27.3410 O      17785 WAT       0.0875
  17786 WAT        19.6590    8.8440   27.5910 O      17786 WAT       0.0460
  17787 WAT        19.6590    9.0940   14.8410 O      17787 WAT       0.0477
  17788 WAT        19.6590    9.0940   15.0910 O      17788 WAT       0.0462
  17789 WAT        19.6590    9.0940   26.3410 O      17789 WAT       0.0726
  17790 WAT        19.6590    9.0940   26.5910 O      17790 WAT       0.1128
  17791 WAT        19.6590    9.0940   26.8410 O      17791 WAT       0.1365
  17792 WAT        19.6590    9.0940   27.0910 O      17792 WAT       0.1286
  17793 WAT        19.6590    9.0940   27.3410 O      17793 WAT       0.0927
  17794 WAT        19.6590    9.0940   27.5910 O      17794 WAT       0.0494
  17795 WAT        19.6590    9.3440   26.3410 O      17795 WAT       0.0477
  17796 WAT        19.6590    9.3440   26.5910 O      17796 WAT       0.0750
  17797 WAT        19.6590    9.3440   26.8410 O      17797 WAT       0.0915
  17798 WAT        19.6590    9.3440   27.0910 O      17798 WAT       0.0869
  17799 WAT        19.6590    9.3440   27.3410 O      17799 WAT       0.0634
  17800 WAT        19.6590   10.0940   11.8410 O      17800 WAT       0.0574
  17801 WAT        19.6590   10.0940   12.0910 O      17801 WAT       0.0718
  17802 WAT        19.6590   10.0940   12.3410 O      17802 WAT       0.0709
  17803 WAT        19.6590   10.0940   12.5910 O      17803 WAT       0.0546
  17804 WAT        19.6590   10.3440   11.5910 O      17804 WAT       0.0782
  17805 WAT        19.6590   10.3440   11.8410 O      17805 WAT       0.1146
  17806 WAT        19.6590   10.3440   12.0910 O      17806 WAT       0.1320
  17807 WAT        19.6590   10.3440   12.3410 O      17807 WAT       0.1178
  17808 WAT        19.6590   10.3440   12.5910 O      17808 WAT       0.0812
  17809 WAT        19.6590   10.5940   11.3410 O      17809 WAT       0.0814
  17810 WAT        19.6590   10.5940   11.5910 O      17810 WAT       0.1386
  17811 WAT        19.6590   10.5940   11.8410 O      17811 WAT       0.1870
  17812 WAT        19.6590   10.5940   12.0910 O      17812 WAT       0.1945
  17813 WAT        19.6590   10.5940   12.3410 O      17813 WAT       0.1549
  17814 WAT        19.6590   10.5940   12.5910 O      17814 WAT       0.0946
  17815 WAT        19.6590   10.8440   11.0910 O      17815 WAT       0.0651
  17816 WAT        19.6590   10.8440   11.3410 O      17816 WAT       0.1244
  17817 WAT        19.6590   10.8440   11.5910 O      17817 WAT       0.1952
  17818 WAT        19.6590   10.8440   11.8410 O      17818 WAT       0.2381
  17819 WAT        19.6590   10.8440   12.0910 O      17819 WAT       0.2211
  17820 WAT        19.6590   10.8440   12.3410 O      17820 WAT       0.1558
  17821 WAT        19.6590   10.8440   12.5910 O      17821 WAT       0.0836
  17822 WAT        19.6590   11.0940   11.0910 O      17822 WAT       0.0853
  17823 WAT        19.6590   11.0940   11.3410 O      17823 WAT       0.1490
  17824 WAT        19.6590   11.0940   11.5910 O      17824 WAT       0.2111
  17825 WAT        19.6590   11.0940   11.8410 O      17825 WAT       0.2302
  17826 WAT        19.6590   11.0940   12.0910 O      17826 WAT       0.1897
  17827 WAT        19.6590   11.0940   12.3410 O      17827 WAT       0.1178
  17828 WAT        19.6590   11.0940   12.5910 O      17828 WAT       0.0552
  17829 WAT        19.6590   11.3440   10.8410 O      17829 WAT       0.0515
  17830 WAT        19.6590   11.3440   11.0910 O      17830 WAT       0.0871
  17831 WAT        19.6590   11.3440   11.3410 O      17831 WAT       0.1350
  17832 WAT        19.6590   11.3440   11.5910 O      17832 WAT       0.1702
  17833 WAT        19.6590   11.3440   11.8410 O      17833 WAT       0.1649
  17834 WAT        19.6590   11.3440   12.0910 O      17834 WAT       0.1202
  17835 WAT        19.6590   11.3440   12.3410 O      17835 WAT       0.0655
  17836 WAT        19.6590   11.5940   10.8410 O      17836 WAT       0.0481
  17837 WAT        19.6590   11.5940   11.0910 O      17837 WAT       0.0676
  17838 WAT        19.6590   11.5940   11.3410 O      17838 WAT       0.0904
  17839 WAT        19.6590   11.5940   11.5910 O      17839 WAT       0.0998
  17840 WAT        19.6590   11.5940   11.8410 O      17840 WAT       0.0853
  17841 WAT        19.6590   11.5940   12.0910 O      17841 WAT       0.0547
  17842 WAT        19.6590   11.8440    9.5910 O      17842 WAT       0.0522
  17843 WAT        19.6590   11.8440    9.8410 O      17843 WAT       0.0555
  17844 WAT        19.6590   11.8440   10.0910 O      17844 WAT       0.0526
  17845 WAT        19.6590   11.8440   10.3410 O      17845 WAT       0.0450
  17846 WAT        19.6590   12.0940    9.3410 O      17846 WAT       0.0497
  17847 WAT        19.6590   12.0940    9.5910 O      17847 WAT       0.0596
  17848 WAT        19.6590   12.0940    9.8410 O      17848 WAT       0.0621
  17849 WAT        19.6590   12.0940   10.0910 O      17849 WAT       0.0556
  17850 WAT        19.6590   12.3440    9.3410 O      17850 WAT       0.0512
  17851 WAT        19.6590   12.3440    9.5910 O      17851 WAT       0.0597
  17852 WAT        19.6590   12.3440    9.8410 O      17852 WAT       0.0591
  17853 WAT        19.6590   12.3440   10.0910 O      17853 WAT       0.0486
  17854 WAT        19.6590   12.5940    9.3410 O      17854 WAT       0.0482
  17855 WAT        19.6590   12.5940    9.5910 O      17855 WAT       0.0526
  17856 WAT        19.6590   12.5940    9.8410 O      17856 WAT       0.0475
  17857 WAT        19.6590   14.3440    8.8410 O      17857 WAT       0.0499
  17858 WAT        19.6590   14.3440    9.0910 O      17858 WAT       0.0476
  17859 WAT        19.6590   14.5940    8.8410 O      17859 WAT       0.0503
  17860 WAT        19.6590   14.5940    9.0910 O      17860 WAT       0.0493
  17861 WAT        19.6590   14.8440    8.8410 O      17861 WAT       0.0450
  17862 WAT        19.6590   14.8440    9.0910 O      17862 WAT       0.0455
  17863 WAT        19.6590   16.3440    4.0910 O      17863 WAT       0.0470
  17864 WAT        19.6590   16.3440    4.3410 O      17864 WAT       0.0506
  17865 WAT        19.6590   16.3440    4.5910 O      17865 WAT       0.0503
  17866 WAT        19.6590   16.3440    4.8410 O      17866 WAT       0.0464
  17867 WAT        19.6590   16.5940    4.0910 O      17867 WAT       0.0486
  17868 WAT        19.6590   16.5940    4.3410 O      17868 WAT       0.0504
  17869 WAT        19.6590   16.5940    4.5910 O      17869 WAT       0.0480
  17870 WAT        19.6590   16.5940    9.3410 O      17870 WAT       0.0488
  17871 WAT        19.6590   16.8440    9.0910 O      17871 WAT       0.0733
  17872 WAT        19.6590   16.8440    9.3410 O      17872 WAT       0.0896
  17873 WAT        19.6590   16.8440    9.5910 O      17873 WAT       0.0737
  17874 WAT        19.6590   17.0940    8.8410 O      17874 WAT       0.0640
  17875 WAT        19.6590   17.0940    9.0910 O      17875 WAT       0.1078
  17876 WAT        19.6590   17.0940    9.3410 O      17876 WAT       0.1238
  17877 WAT        19.6590   17.0940    9.5910 O      17877 WAT       0.0959
  17878 WAT        19.6590   17.0940    9.8410 O      17878 WAT       0.0497
  17879 WAT        19.6590   17.3440    8.8410 O      17879 WAT       0.0735
  17880 WAT        19.6590   17.3440    9.0910 O      17880 WAT       0.1116
  17881 WAT        19.6590   17.3440    9.3410 O      17881 WAT       0.1180
  17882 WAT        19.6590   17.3440    9.5910 O      17882 WAT       0.0851
  17883 WAT        19.6590   17.5940    6.5910 O      17883 WAT       0.0585
  17884 WAT        19.6590   17.5940    6.8410 O      17884 WAT       0.0574
  17885 WAT        19.6590   17.5940    8.5910 O      17885 WAT       0.0513
  17886 WAT        19.6590   17.5940    8.8410 O      17886 WAT       0.0706
  17887 WAT        19.6590   17.5940    9.0910 O      17887 WAT       0.0845
  17888 WAT        19.6590   17.5940    9.3410 O      17888 WAT       0.0781
  17889 WAT        19.6590   17.5940    9.5910 O      17889 WAT       0.0513
  17890 WAT        19.6590   17.8440    6.5910 O      17890 WAT       0.0567
  17891 WAT        19.6590   17.8440    6.8410 O      17891 WAT       0.0582
  17892 WAT        19.6590   17.8440    8.0910 O      17892 WAT       0.0645
  17893 WAT        19.6590   17.8440    8.3410 O      17893 WAT       0.0977
  17894 WAT        19.6590   17.8440    8.5910 O      17894 WAT       0.1045
  17895 WAT        19.6590   17.8440    8.8410 O      17895 WAT       0.0854
  17896 WAT        19.6590   17.8440    9.0910 O      17896 WAT       0.0603
  17897 WAT        19.6590   18.0940    7.8410 O      17897 WAT       0.0681
  17898 WAT        19.6590   18.0940    8.0910 O      17898 WAT       0.1491
  17899 WAT        19.6590   18.0940    8.3410 O      17899 WAT       0.2203
  17900 WAT        19.6590   18.0940    8.5910 O      17900 WAT       0.2148
  17901 WAT        19.6590   18.0940    8.8410 O      17901 WAT       0.1399
  17902 WAT        19.6590   18.0940    9.0910 O      17902 WAT       0.0638
  17903 WAT        19.6590   18.3440    7.8410 O      17903 WAT       0.1014
  17904 WAT        19.6590   18.3440    8.0910 O      17904 WAT       0.2300
  17905 WAT        19.6590   18.3440    8.3410 O      17905 WAT       0.3426
  17906 WAT        19.6590   18.3440    8.5910 O      17906 WAT       0.3301
  17907 WAT        19.6590   18.3440    8.8410 O      17907 WAT       0.2047
  17908 WAT        19.6590   18.3440    9.0910 O      17908 WAT       0.0819
  17909 WAT        19.6590   18.5940    7.8410 O      17909 WAT       0.0994
  17910 WAT        19.6590   18.5940    8.0910 O      17910 WAT       0.2325
  17911 WAT        19.6590   18.5940    8.3410 O      17911 WAT       0.3523
  17912 WAT        19.6590   18.5940    8.5910 O      17912 WAT       0.3426
  17913 WAT        19.6590   18.5940    8.8410 O      17913 WAT       0.2124
  17914 WAT        19.6590   18.5940    9.0910 O      17914 WAT       0.0834
  17915 WAT        19.6590   18.8440    7.8410 O      17915 WAT       0.0630
  17916 WAT        19.6590   18.8440    8.0910 O      17916 WAT       0.1523
  17917 WAT        19.6590   18.8440    8.3410 O      17917 WAT       0.2359
  17918 WAT        19.6590   18.8440    8.5910 O      17918 WAT       0.2336
  17919 WAT        19.6590   18.8440    8.8410 O      17919 WAT       0.1468
  17920 WAT        19.6590   18.8440    9.0910 O      17920 WAT       0.0579
  17921 WAT        19.6590   19.0940    8.0910 O      17921 WAT       0.0640
  17922 WAT        19.6590   19.0940    8.3410 O      17922 WAT       0.1022
  17923 WAT        19.6590   19.0940    8.5910 O      17923 WAT       0.1037
  17924 WAT        19.6590   19.0940    8.8410 O      17924 WAT       0.0664
  17925 WAT        19.6590   30.5940   21.3410 O      17925 WAT       0.0562
  17926 WAT        19.6590   30.5940   21.5910 O      17926 WAT       0.0609
  17927 WAT        19.6590   30.8440   21.0910 O      17927 WAT       0.0518
  17928 WAT        19.6590   30.8440   21.3410 O      17928 WAT       0.0810
  17929 WAT        19.6590   30.8440   21.5910 O      17929 WAT       0.0844
  17930 WAT        19.6590   30.8440   21.8410 O      17930 WAT       0.0591
  17931 WAT        19.6590   31.0940   21.0910 O      17931 WAT       0.0496
  17932 WAT        19.6590   31.0940   21.3410 O      17932 WAT       0.0753
  17933 WAT        19.6590   31.0940   21.5910 O      17933 WAT       0.0761
  17934 WAT        19.6590   31.0940   21.8410 O      17934 WAT       0.0517
  17935 WAT        19.9090    8.3440   14.0910 O      17935 WAT       0.0524
  17936 WAT        19.9090    8.3440   14.3410 O      17936 WAT       0.1151
  17937 WAT        19.9090    8.3440   14.5910 O      17937 WAT       0.1941
  17938 WAT        19.9090    8.3440   14.8410 O      17938 WAT       0.2389
  17939 WAT        19.9090    8.3440   15.0910 O      17939 WAT       0.2103
  17940 WAT        19.9090    8.3440   15.3410 O      17940 WAT       0.1311
  17941 WAT        19.9090    8.3440   15.5910 O      17941 WAT       0.0574
  17942 WAT        19.9090    8.3440   26.8410 O      17942 WAT       0.0502
  17943 WAT        19.9090    8.3440   27.0910 O      17943 WAT       0.0510
  17944 WAT        19.9090    8.5940   14.0910 O      17944 WAT       0.0467
  17945 WAT        19.9090    8.5940   14.3410 O      17945 WAT       0.1034
  17946 WAT        19.9090    8.5940   14.5910 O      17946 WAT       0.1799
  17947 WAT        19.9090    8.5940   14.8410 O      17947 WAT       0.2296
  17948 WAT        19.9090    8.5940   15.0910 O      17948 WAT       0.2096
  17949 WAT        19.9090    8.5940   15.3410 O      17949 WAT       0.1356
  17950 WAT        19.9090    8.5940   15.5910 O      17950 WAT       0.0618
  17951 WAT        19.9090    8.5940   26.3410 O      17951 WAT       0.0507
  17952 WAT        19.9090    8.5940   26.5910 O      17952 WAT       0.0760
  17953 WAT        19.9090    8.5940   26.8410 O      17953 WAT       0.0938
  17954 WAT        19.9090    8.5940   27.0910 O      17954 WAT       0.0922
  17955 WAT        19.9090    8.5940   27.3410 O      17955 WAT       0.0693
  17956 WAT        19.9090    8.8440   14.3410 O      17956 WAT       0.0643
  17957 WAT        19.9090    8.8440   14.5910 O      17957 WAT       0.1122
  17958 WAT        19.9090    8.8440   14.8410 O      17958 WAT       0.1459
  17959 WAT        19.9090    8.8440   15.0910 O      17959 WAT       0.1367
  17960 WAT        19.9090    8.8440   15.3410 O      17960 WAT       0.0910
  17961 WAT        19.9090    8.8440   26.3410 O      17961 WAT       0.0712
  17962 WAT        19.9090    8.8440   26.5910 O      17962 WAT       0.1107
  17963 WAT        19.9090    8.8440   26.8410 O      17963 WAT       0.1379
  17964 WAT        19.9090    8.8440   27.0910 O      17964 WAT       0.1350
  17965 WAT        19.9090    8.8440   27.3410 O      17965 WAT       0.1007
  17966 WAT        19.9090    8.8440   27.5910 O      17966 WAT       0.0550
  17967 WAT        19.9090    9.0940   14.5910 O      17967 WAT       0.0460
  17968 WAT        19.9090    9.0940   14.8410 O      17968 WAT       0.0602
  17969 WAT        19.9090    9.0940   15.0910 O      17969 WAT       0.0573
  17970 WAT        19.9090    9.0940   26.3410 O      17970 WAT       0.0704
  17971 WAT        19.9090    9.0940   26.5910 O      17971 WAT       0.1118
  17972 WAT        19.9090    9.0940   26.8410 O      17972 WAT       0.1405
  17973 WAT        19.9090    9.0940   27.0910 O      17973 WAT       0.1382
  17974 WAT        19.9090    9.0940   27.3410 O      17974 WAT       0.1037
  17975 WAT        19.9090    9.0940   27.5910 O      17975 WAT       0.0573
  17976 WAT        19.9090    9.3440   26.3410 O      17976 WAT       0.0463
  17977 WAT        19.9090    9.3440   26.5910 O      17977 WAT       0.0743
  17978 WAT        19.9090    9.3440   26.8410 O      17978 WAT       0.0939
  17979 WAT        19.9090    9.3440   27.0910 O      17979 WAT       0.0929
  17980 WAT        19.9090    9.3440   27.3410 O      17980 WAT       0.0704
  17981 WAT        19.9090   10.0940   11.8410 O      17981 WAT       0.0464
  17982 WAT        19.9090   10.0940   12.0910 O      17982 WAT       0.0637
  17983 WAT        19.9090   10.0940   12.3410 O      17983 WAT       0.0694
  17984 WAT        19.9090   10.0940   12.5910 O      17984 WAT       0.0595
  17985 WAT        19.9090   10.3440   11.5910 O      17985 WAT       0.0624
  17986 WAT        19.9090   10.3440   11.8410 O      17986 WAT       0.0993
  17987 WAT        19.9090   10.3440   12.0910 O      17987 WAT       0.1254
  17988 WAT        19.9090   10.3440   12.3410 O      17988 WAT       0.1238
  17989 WAT        19.9090   10.3440   12.5910 O      17989 WAT       0.0952
  17990 WAT        19.9090   10.3440   12.8410 O      17990 WAT       0.0571
  17991 WAT        19.9090   10.5940   11.3410 O      17991 WAT       0.0644
  17992 WAT        19.9090   10.5940   11.5910 O      17992 WAT       0.1181
  17993 WAT        19.9090   10.5940   11.8410 O      17993 WAT       0.1731
  17994 WAT        19.9090   10.5940   12.0910 O      17994 WAT       0.1980
  17995 WAT        19.9090   10.5940   12.3410 O      17995 WAT       0.1754
  17996 WAT        19.9090   10.5940   12.5910 O      17996 WAT       0.1204
  17997 WAT        19.9090   10.5940   12.8410 O      17997 WAT       0.0642
  17998 WAT        19.9090   10.8440   11.0910 O      17998 WAT       0.0507
  17999 WAT        19.9090   10.8440   11.3410 O      17999 WAT       0.1034
  18000 WAT        19.9090   10.8440   11.5910 O      18000 WAT       0.1752
  18001 WAT        19.9090   10.8440   11.8410 O      18001 WAT       0.2337
  18002 WAT        19.9090   10.8440   12.0910 O      18002 WAT       0.2403
  18003 WAT        19.9090   10.8440   12.3410 O      18003 WAT       0.1901
  18004 WAT        19.9090   10.8440   12.5910 O      18004 WAT       0.1161
  18005 WAT        19.9090   10.8440   12.8410 O      18005 WAT       0.0551
  18006 WAT        19.9090   11.0940   11.0910 O      18006 WAT       0.0681
  18007 WAT        19.9090   11.0940   11.3410 O      18007 WAT       0.1276
  18008 WAT        19.9090   11.0940   11.5910 O      18008 WAT       0.1964
  18009 WAT        19.9090   11.0940   11.8410 O      18009 WAT       0.2362
  18010 WAT        19.9090   11.0940   12.0910 O      18010 WAT       0.2178
  18011 WAT        19.9090   11.0940   12.3410 O      18011 WAT       0.1537
  18012 WAT        19.9090   11.0940   12.5910 O      18012 WAT       0.0835
  18013 WAT        19.9090   11.3440   11.0910 O      18013 WAT       0.0701
  18014 WAT        19.9090   11.3440   11.3410 O      18014 WAT       0.1172
  18015 WAT        19.9090   11.3440   11.5910 O      18015 WAT       0.1616
  18016 WAT        19.9090   11.3440   11.8410 O      18016 WAT       0.1741
  18017 WAT        19.9090   11.3440   12.0910 O      18017 WAT       0.1436
  18018 WAT        19.9090   11.3440   12.3410 O      18018 WAT       0.0904
  18019 WAT        19.9090   11.5940   11.0910 O      18019 WAT       0.0541
  18020 WAT        19.9090   11.5940   11.3410 O      18020 WAT       0.0782
  18021 WAT        19.9090   11.5940   11.5910 O      18021 WAT       0.0952
  18022 WAT        19.9090   11.5940   11.8410 O      18022 WAT       0.0913
  18023 WAT        19.9090   11.5940   12.0910 O      18023 WAT       0.0671
  18024 WAT        19.9090   11.8440    9.5910 O      18024 WAT       0.0474
  18025 WAT        19.9090   11.8440    9.8410 O      18025 WAT       0.0492
  18026 WAT        19.9090   12.0940    9.3410 O      18026 WAT       0.0461
  18027 WAT        19.9090   12.0940    9.5910 O      18027 WAT       0.0544
  18028 WAT        19.9090   12.0940    9.8410 O      18028 WAT       0.0556
  18029 WAT        19.9090   12.0940   10.0910 O      18029 WAT       0.0483
  18030 WAT        19.9090   12.3440    9.3410 O      18030 WAT       0.0475
  18031 WAT        19.9090   12.3440    9.5910 O      18031 WAT       0.0547
  18032 WAT        19.9090   12.3440    9.8410 O      18032 WAT       0.0534
  18033 WAT        19.9090   12.5940    9.5910 O      18033 WAT       0.0484
  18034 WAT        19.9090   14.0940    8.8410 O      18034 WAT       0.0457
  18035 WAT        19.9090   14.3440    8.5910 O      18035 WAT       0.0452
  18036 WAT        19.9090   14.3440    8.8410 O      18036 WAT       0.0511
  18037 WAT        19.9090   14.3440    9.0910 O      18037 WAT       0.0492
  18038 WAT        19.9090   14.5940    8.8410 O      18038 WAT       0.0497
  18039 WAT        19.9090   14.5940    9.0910 O      18039 WAT       0.0486
  18040 WAT        19.9090   16.0940    4.5910 O      18040 WAT       0.0468
  18041 WAT        19.9090   16.0940    4.8410 O      18041 WAT       0.0466
  18042 WAT        19.9090   16.3440    4.0910 O      18042 WAT       0.0471
  18043 WAT        19.9090   16.3440    4.3410 O      18043 WAT       0.0516
  18044 WAT        19.9090   16.3440    4.5910 O      18044 WAT       0.0525
  18045 WAT        19.9090   16.3440    4.8410 O      18045 WAT       0.0492
  18046 WAT        19.9090   16.5940    4.0910 O      18046 WAT       0.0480
  18047 WAT        19.9090   16.5940    4.3410 O      18047 WAT       0.0506
  18048 WAT        19.9090   16.5940    4.5910 O      18048 WAT       0.0491
  18049 WAT        19.9090   16.5940    9.0910 O      18049 WAT       0.0467
  18050 WAT        19.9090   16.5940    9.3410 O      18050 WAT       0.0587
  18051 WAT        19.9090   16.5940    9.5910 O      18051 WAT       0.0499
  18052 WAT        19.9090   16.8440    8.8410 O      18052 WAT       0.0496
  18053 WAT        19.9090   16.8440    9.0910 O      18053 WAT       0.0889
  18054 WAT        19.9090   16.8440    9.3410 O      18054 WAT       0.1080
  18055 WAT        19.9090   16.8440    9.5910 O      18055 WAT       0.0880
  18056 WAT        19.9090   16.8440    9.8410 O      18056 WAT       0.0475
  18057 WAT        19.9090   17.0940    8.8410 O      18057 WAT       0.0762
  18058 WAT        19.9090   17.0940    9.0910 O      18058 WAT       0.1277
  18059 WAT        19.9090   17.0940    9.3410 O      18059 WAT       0.1458
  18060 WAT        19.9090   17.0940    9.5910 O      18060 WAT       0.1121
  18061 WAT        19.9090   17.0940    9.8410 O      18061 WAT       0.0573
  18062 WAT        19.9090   17.3440    8.8410 O      18062 WAT       0.0841
  18063 WAT        19.9090   17.3440    9.0910 O      18063 WAT       0.1276
  18064 WAT        19.9090   17.3440    9.3410 O      18064 WAT       0.1345
  18065 WAT        19.9090   17.3440    9.5910 O      18065 WAT       0.0964
  18066 WAT        19.9090   17.3440    9.8410 O      18066 WAT       0.0462
  18067 WAT        19.9090   17.5940    6.5910 O      18067 WAT       0.0532
  18068 WAT        19.9090   17.5940    6.8410 O      18068 WAT       0.0516
  18069 WAT        19.9090   17.5940    8.5910 O      18069 WAT       0.0501
  18070 WAT        19.9090   17.5940    8.8410 O      18070 WAT       0.0733
  18071 WAT        19.9090   17.5940    9.0910 O      18071 WAT       0.0909
  18072 WAT        19.9090   17.5940    9.3410 O      18072 WAT       0.0851
  18073 WAT        19.9090   17.5940    9.5910 O      18073 WAT       0.0558
  18074 WAT        19.9090   17.8440    6.5910 O      18074 WAT       0.0561
  18075 WAT        19.9090   17.8440    6.8410 O      18075 WAT       0.0574
  18076 WAT        19.9090   17.8440    8.0910 O      18076 WAT       0.0563
  18077 WAT        19.9090   17.8440    8.3410 O      18077 WAT       0.0817
  18078 WAT        19.9090   17.8440    8.5910 O      18078 WAT       0.0859
  18079 WAT        19.9090   17.8440    8.8410 O      18079 WAT       0.0724
  18080 WAT        19.9090   17.8440    9.0910 O      18080 WAT       0.0554
  18081 WAT        19.9090   18.0940    7.8410 O      18081 WAT       0.0623
  18082 WAT        19.9090   18.0940    8.0910 O      18082 WAT       0.1272
  18083 WAT        19.9090   18.0940    8.3410 O      18083 WAT       0.1767
  18084 WAT        19.9090   18.0940    8.5910 O      18084 WAT       0.1629
  18085 WAT        19.9090   18.0940    8.8410 O      18085 WAT       0.1017
  18086 WAT        19.9090   18.0940    9.0910 O      18086 WAT       0.0459
  18087 WAT        19.9090   18.3440    7.8410 O      18087 WAT       0.0922
  18088 WAT        19.9090   18.3440    8.0910 O      18088 WAT       0.1937
  18089 WAT        19.9090   18.3440    8.3410 O      18089 WAT       0.2686
  18090 WAT        19.9090   18.3440    8.5910 O      18090 WAT       0.2411
  18091 WAT        19.9090   18.3440    8.8410 O      18091 WAT       0.1397
  18092 WAT        19.9090   18.3440    9.0910 O      18092 WAT       0.0521
  18093 WAT        19.9090   18.5940    7.8410 O      18093 WAT       0.0898
  18094 WAT        19.9090   18.5940    8.0910 O      18094 WAT       0.1936
  18095 WAT        19.9090   18.5940    8.3410 O      18095 WAT       0.2711
  18096 WAT        19.9090   18.5940    8.5910 O      18096 WAT       0.2437
  18097 WAT        19.9090   18.5940    8.8410 O      18097 WAT       0.1396
  18098 WAT        19.9090   18.5940    9.0910 O      18098 WAT       0.0503
  18099 WAT        19.9090   18.8440    7.8410 O      18099 WAT       0.0566
  18100 WAT        19.9090   18.8440    8.0910 O      18100 WAT       0.1253
  18101 WAT        19.9090   18.8440    8.3410 O      18101 WAT       0.1782
  18102 WAT        19.9090   18.8440    8.5910 O      18102 WAT       0.1619
  18103 WAT        19.9090   18.8440    8.8410 O      18103 WAT       0.0932
  18104 WAT        19.9090   19.0940    8.0910 O      18104 WAT       0.0517
  18105 WAT        19.9090   19.0940    8.3410 O      18105 WAT       0.0753
  18106 WAT        19.9090   19.0940    8.5910 O      18106 WAT       0.0695
  18107 WAT        20.1590    8.3440   14.0910 O      18107 WAT       0.0499
  18108 WAT        20.1590    8.3440   14.3410 O      18108 WAT       0.1102
  18109 WAT        20.1590    8.3440   14.5910 O      18109 WAT       0.1865
  18110 WAT        20.1590    8.3440   14.8410 O      18110 WAT       0.2300
  18111 WAT        20.1590    8.3440   15.0910 O      18111 WAT       0.2026
  18112 WAT        20.1590    8.3440   15.3410 O      18112 WAT       0.1263
  18113 WAT        20.1590    8.3440   15.5910 O      18113 WAT       0.0552
  18114 WAT        20.1590    8.3440   24.5910 O      18114 WAT       0.0594
  18115 WAT        20.1590    8.3440   24.8410 O      18115 WAT       0.0665
  18116 WAT        20.1590    8.3440   25.0910 O      18116 WAT       0.0552
  18117 WAT        20.1590    8.3440   26.8410 O      18117 WAT       0.0554
  18118 WAT        20.1590    8.3440   27.0910 O      18118 WAT       0.0614
  18119 WAT        20.1590    8.3440   27.3410 O      18119 WAT       0.0524
  18120 WAT        20.1590    8.5940   14.0910 O      18120 WAT       0.0457
  18121 WAT        20.1590    8.5940   14.3410 O      18121 WAT       0.1028
  18122 WAT        20.1590    8.5940   14.5910 O      18122 WAT       0.1804
  18123 WAT        20.1590    8.5940   14.8410 O      18123 WAT       0.2314
  18124 WAT        20.1590    8.5940   15.0910 O      18124 WAT       0.2121
  18125 WAT        20.1590    8.5940   15.3410 O      18125 WAT       0.1376
  18126 WAT        20.1590    8.5940   15.5910 O      18126 WAT       0.0627
  18127 WAT        20.1590    8.5940   24.8410 O      18127 WAT       0.0490
  18128 WAT        20.1590    8.5940   26.5910 O      18128 WAT       0.0650
  18129 WAT        20.1590    8.5940   26.8410 O      18129 WAT       0.0821
  18130 WAT        20.1590    8.5940   27.0910 O      18130 WAT       0.0846
  18131 WAT        20.1590    8.5940   27.3410 O      18131 WAT       0.0673
  18132 WAT        20.1590    8.8440   14.3410 O      18132 WAT       0.0664
  18133 WAT        20.1590    8.8440   14.5910 O      18133 WAT       0.1172
  18134 WAT        20.1590    8.8440   14.8410 O      18134 WAT       0.1537
  18135 WAT        20.1590    8.8440   15.0910 O      18135 WAT       0.1448
  18136 WAT        20.1590    8.8440   15.3410 O      18136 WAT       0.0968
  18137 WAT        20.1590    8.8440   15.5910 O      18137 WAT       0.0455
  18138 WAT        20.1590    8.8440   26.3410 O      18138 WAT       0.0559
  18139 WAT        20.1590    8.8440   26.5910 O      18139 WAT       0.0850
  18140 WAT        20.1590    8.8440   26.8410 O      18140 WAT       0.1067
  18141 WAT        20.1590    8.8440   27.0910 O      18141 WAT       0.1073
  18142 WAT        20.1590    8.8440   27.3410 O      18142 WAT       0.0829
  18143 WAT        20.1590    8.8440   27.5910 O      18143 WAT       0.0468
  18144 WAT        20.1590    9.0940   14.5910 O      18144 WAT       0.0503
  18145 WAT        20.1590    9.0940   14.8410 O      18145 WAT       0.0662
  18146 WAT        20.1590    9.0940   15.0910 O      18146 WAT       0.0635
  18147 WAT        20.1590    9.0940   26.3410 O      18147 WAT       0.0526
  18148 WAT        20.1590    9.0940   26.5910 O      18148 WAT       0.0816
  18149 WAT        20.1590    9.0940   26.8410 O      18149 WAT       0.1032
  18150 WAT        20.1590    9.0940   27.0910 O      18150 WAT       0.1036
  18151 WAT        20.1590    9.0940   27.3410 O      18151 WAT       0.0798
  18152 WAT        20.1590    9.0940   27.5910 O      18152 WAT       0.0452
  18153 WAT        20.1590    9.3440   26.5910 O      18153 WAT       0.0531
  18154 WAT        20.1590    9.3440   26.8410 O      18154 WAT       0.0676
  18155 WAT        20.1590    9.3440   27.0910 O      18155 WAT       0.0681
  18156 WAT        20.1590    9.3440   27.3410 O      18156 WAT       0.0529
  18157 WAT        20.1590   10.0940   12.0910 O      18157 WAT       0.0469
  18158 WAT        20.1590   10.0940   12.3410 O      18158 WAT       0.0564
  18159 WAT        20.1590   10.0940   12.5910 O      18159 WAT       0.0537
  18160 WAT        20.1590   10.3440   11.8410 O      18160 WAT       0.0714
  18161 WAT        20.1590   10.3440   12.0910 O      18161 WAT       0.0989
  18162 WAT        20.1590   10.3440   12.3410 O      18162 WAT       0.1082
  18163 WAT        20.1590   10.3440   12.5910 O      18163 WAT       0.0931
  18164 WAT        20.1590   10.3440   12.8410 O      18164 WAT       0.0632
  18165 WAT        20.1590   10.5940   11.5910 O      18165 WAT       0.0827
  18166 WAT        20.1590   10.5940   11.8410 O      18166 WAT       0.1327
  18167 WAT        20.1590   10.5940   12.0910 O      18167 WAT       0.1681
  18168 WAT        20.1590   10.5940   12.3410 O      18168 WAT       0.1665
  18169 WAT        20.1590   10.5940   12.5910 O      18169 WAT       0.1293
  18170 WAT        20.1590   10.5940   12.8410 O      18170 WAT       0.0791
  18171 WAT        20.1590   10.8440   11.3410 O      18171 WAT       0.0704
  18172 WAT        20.1590   10.8440   11.5910 O      18172 WAT       0.1288
  18173 WAT        20.1590   10.8440   11.8410 O      18173 WAT       0.1895
  18174 WAT        20.1590   10.8440   12.0910 O      18174 WAT       0.2183
  18175 WAT        20.1590   10.8440   12.3410 O      18175 WAT       0.1958
  18176 WAT        20.1590   10.8440   12.5910 O      18176 WAT       0.1374
  18177 WAT        20.1590   10.8440   12.8410 O      18177 WAT       0.0761
  18178 WAT        20.1590   11.0940   11.0910 O      18178 WAT       0.0451
  18179 WAT        20.1590   11.0940   11.3410 O      18179 WAT       0.0892
  18180 WAT        20.1590   11.0940   11.5910 O      18180 WAT       0.1495
  18181 WAT        20.1590   11.0940   11.8410 O      18181 WAT       0.2002
  18182 WAT        20.1590   11.0940   12.0910 O      18182 WAT       0.2094
  18183 WAT        20.1590   11.0940   12.3410 O      18183 WAT       0.1703
  18184 WAT        20.1590   11.0940   12.5910 O      18184 WAT       0.1084
  18185 WAT        20.1590   11.0940   12.8410 O      18185 WAT       0.0546
  18186 WAT        20.1590   11.3440   11.0910 O      18186 WAT       0.0466
  18187 WAT        20.1590   11.3440   11.3410 O      18187 WAT       0.0829
  18188 WAT        20.1590   11.3440   11.5910 O      18188 WAT       0.1255
  18189 WAT        20.1590   11.3440   11.8410 O      18189 WAT       0.1521
  18190 WAT        20.1590   11.3440   12.0910 O      18190 WAT       0.1442
  18191 WAT        20.1590   11.3440   12.3410 O      18191 WAT       0.1065
  18192 WAT        20.1590   11.3440   12.5910 O      18192 WAT       0.0616
  18193 WAT        20.1590   11.5940   11.3410 O      18193 WAT       0.0554
  18194 WAT        20.1590   11.5940   11.5910 O      18194 WAT       0.0745
  18195 WAT        20.1590   11.5940   11.8410 O      18195 WAT       0.0811
  18196 WAT        20.1590   11.5940   12.0910 O      18196 WAT       0.0694
  18197 WAT        20.1590   11.5940   12.3410 O      18197 WAT       0.0463
  18198 WAT        20.1590   12.0940    9.5910 O      18198 WAT       0.0501
  18199 WAT        20.1590   12.0940    9.8410 O      18199 WAT       0.0501
  18200 WAT        20.1590   12.3440    9.5910 O      18200 WAT       0.0505
  18201 WAT        20.1590   12.3440    9.8410 O      18201 WAT       0.0487
  18202 WAT        20.1590   14.0940    8.8410 O      18202 WAT       0.0461
  18203 WAT        20.1590   14.0940    9.0910 O      18203 WAT       0.0455
  18204 WAT        20.1590   14.3440    8.8410 O      18204 WAT       0.0500
  18205 WAT        20.1590   14.3440    9.0910 O      18205 WAT       0.0496
  18206 WAT        20.1590   14.5940    8.8410 O      18206 WAT       0.0469
  18207 WAT        20.1590   14.5940    9.0910 O      18207 WAT       0.0469
  18208 WAT        20.1590   16.0940    4.5910 O      18208 WAT       0.0484
  18209 WAT        20.1590   16.0940    4.8410 O      18209 WAT       0.0488
  18210 WAT        20.1590   16.3440    4.0910 O      18210 WAT       0.0458
  18211 WAT        20.1590   16.3440    4.3410 O      18211 WAT       0.0512
  18212 WAT        20.1590   16.3440    4.5910 O      18212 WAT       0.0535
  18213 WAT        20.1590   16.3440    4.8410 O      18213 WAT       0.0511
  18214 WAT        20.1590   16.5940    4.0910 O      18214 WAT       0.0460
  18215 WAT        20.1590   16.5940    4.3410 O      18215 WAT       0.0495
  18216 WAT        20.1590   16.5940    4.5910 O      18216 WAT       0.0492
  18217 WAT        20.1590   16.5940    9.0910 O      18217 WAT       0.0461
  18218 WAT        20.1590   16.5940    9.3410 O      18218 WAT       0.0566
  18219 WAT        20.1590   16.5940    9.5910 O      18219 WAT       0.0471
  18220 WAT        20.1590   16.8440    8.8410 O      18220 WAT       0.0498
  18221 WAT        20.1590   16.8440    9.0910 O      18221 WAT       0.0872
  18222 WAT        20.1590   16.8440    9.3410 O      18222 WAT       0.1043
  18223 WAT        20.1590   16.8440    9.5910 O      18223 WAT       0.0837
  18224 WAT        20.1590   17.0940    8.8410 O      18224 WAT       0.0749
  18225 WAT        20.1590   17.0940    9.0910 O      18225 WAT       0.1235
  18226 WAT        20.1590   17.0940    9.3410 O      18226 WAT       0.1394
  18227 WAT        20.1590   17.0940    9.5910 O      18227 WAT       0.1058
  18228 WAT        20.1590   17.0940    9.8410 O      18228 WAT       0.0533
  18229 WAT        20.1590   17.3440    8.8410 O      18229 WAT       0.0805
  18230 WAT        20.1590   17.3440    9.0910 O      18230 WAT       0.1209
  18231 WAT        20.1590   17.3440    9.3410 O      18231 WAT       0.1263
  18232 WAT        20.1590   17.3440    9.5910 O      18232 WAT       0.0897
  18233 WAT        20.1590   17.5940    6.5910 O      18233 WAT       0.0491
  18234 WAT        20.1590   17.5940    6.8410 O      18234 WAT       0.0477
  18235 WAT        20.1590   17.5940    8.8410 O      18235 WAT       0.0653
  18236 WAT        20.1590   17.5940    9.0910 O      18236 WAT       0.0829
  18237 WAT        20.1590   17.5940    9.3410 O      18237 WAT       0.0777
  18238 WAT        20.1590   17.5940    9.5910 O      18238 WAT       0.0507
  18239 WAT        20.1590   17.8440    6.5910 O      18239 WAT       0.0573
  18240 WAT        20.1590   17.8440    6.8410 O      18240 WAT       0.0592
  18241 WAT        20.1590   17.8440    8.3410 O      18241 WAT       0.0539
  18242 WAT        20.1590   17.8440    8.5910 O      18242 WAT       0.0577
  18243 WAT        20.1590   17.8440    8.8410 O      18243 WAT       0.0525
  18244 WAT        20.1590   18.0940    6.5910 O      18244 WAT       0.0464
  18245 WAT        20.1590   18.0940    6.8410 O      18245 WAT       0.0505
  18246 WAT        20.1590   18.0940    8.0910 O      18246 WAT       0.0830
  18247 WAT        20.1590   18.0940    8.3410 O      18247 WAT       0.1090
  18248 WAT        20.1590   18.0940    8.5910 O      18248 WAT       0.0964
  18249 WAT        20.1590   18.0940    8.8410 O      18249 WAT       0.0592
  18250 WAT        20.1590   18.3440    7.8410 O      18250 WAT       0.0641
  18251 WAT        20.1590   18.3440    8.0910 O      18251 WAT       0.1241
  18252 WAT        20.1590   18.3440    8.3410 O      18252 WAT       0.1609
  18253 WAT        20.1590   18.3440    8.5910 O      18253 WAT       0.1356
  18254 WAT        20.1590   18.3440    8.8410 O      18254 WAT       0.0738
  18255 WAT        20.1590   18.5940    7.8410 O      18255 WAT       0.0618
  18256 WAT        20.1590   18.5940    8.0910 O      18256 WAT       0.1227
  18257 WAT        20.1590   18.5940    8.3410 O      18257 WAT       0.1596
  18258 WAT        20.1590   18.5940    8.5910 O      18258 WAT       0.1333
  18259 WAT        20.1590   18.5940    8.8410 O      18259 WAT       0.0707
  18260 WAT        20.1590   18.8440    8.0910 O      18260 WAT       0.0786
  18261 WAT        20.1590   18.8440    8.3410 O      18261 WAT       0.1032
  18262 WAT        20.1590   18.8440    8.5910 O      18262 WAT       0.0864
  18263 WAT        20.1590   18.8440    8.8410 O      18263 WAT       0.0455
  18264 WAT        20.1590   28.3440   21.0910 O      18264 WAT       0.0472
  18265 WAT        20.1590   28.5940   20.8410 O      18265 WAT       0.0668
  18266 WAT        20.1590   28.5940   21.0910 O      18266 WAT       0.0824
  18267 WAT        20.1590   28.5940   21.3410 O      18267 WAT       0.0725
  18268 WAT        20.1590   28.5940   21.5910 O      18268 WAT       0.0451
  18269 WAT        20.1590   28.8440   20.5910 O      18269 WAT       0.0491
  18270 WAT        20.1590   28.8440   20.8410 O      18270 WAT       0.0857
  18271 WAT        20.1590   28.8440   21.0910 O      18271 WAT       0.1088
  18272 WAT        20.1590   28.8440   21.3410 O      18272 WAT       0.1008
  18273 WAT        20.1590   28.8440   21.5910 O      18273 WAT       0.0675
  18274 WAT        20.1590   29.0940   20.8410 O      18274 WAT       0.0756
  18275 WAT        20.1590   29.0940   21.0910 O      18275 WAT       0.1027
  18276 WAT        20.1590   29.0940   21.3410 O      18276 WAT       0.1043
  18277 WAT        20.1590   29.0940   21.5910 O      18277 WAT       0.0780
  18278 WAT        20.1590   29.3440   20.8410 O      18278 WAT       0.0454
  18279 WAT        20.1590   29.3440   21.0910 O      18279 WAT       0.0689
  18280 WAT        20.1590   29.3440   21.3410 O      18280 WAT       0.0794
  18281 WAT        20.1590   29.3440   21.5910 O      18281 WAT       0.0675
  18282 WAT        20.1590   33.8440   10.5910 O      18282 WAT       0.0551
  18283 WAT        20.1590   33.8440   10.8410 O      18283 WAT       0.0610
  18284 WAT        20.1590   34.0940   10.5910 O      18284 WAT       0.0459
  18285 WAT        20.1590   34.0940   10.8410 O      18285 WAT       0.0532
  18286 WAT        20.4090    8.3440   14.3410 O      18286 WAT       0.0904
  18287 WAT        20.4090    8.3440   14.5910 O      18287 WAT       0.1554
  18288 WAT        20.4090    8.3440   14.8410 O      18288 WAT       0.1956
  18289 WAT        20.4090    8.3440   15.0910 O      18289 WAT       0.1767
  18290 WAT        20.4090    8.3440   15.3410 O      18290 WAT       0.1137
  18291 WAT        20.4090    8.3440   15.5910 O      18291 WAT       0.0518
  18292 WAT        20.4090    8.3440   24.0910 O      18292 WAT       0.0484
  18293 WAT        20.4090    8.3440   24.3410 O      18293 WAT       0.0711
  18294 WAT        20.4090    8.3440   24.5910 O      18294 WAT       0.0879
  18295 WAT        20.4090    8.3440   24.8410 O      18295 WAT       0.0853
  18296 WAT        20.4090    8.3440   25.0910 O      18296 WAT       0.0630
  18297 WAT        20.4090    8.3440   26.8410 O      18297 WAT       0.0574
  18298 WAT        20.4090    8.3440   27.0910 O      18298 WAT       0.0663
  18299 WAT        20.4090    8.3440   27.3410 O      18299 WAT       0.0600
  18300 WAT        20.4090    8.5940   14.3410 O      18300 WAT       0.0873
  18301 WAT        20.4090    8.5940   14.5910 O      18301 WAT       0.1568
  18302 WAT        20.4090    8.5940   14.8410 O      18302 WAT       0.2065
  18303 WAT        20.4090    8.5940   15.0910 O      18303 WAT       0.1951
  18304 WAT        20.4090    8.5940   15.3410 O      18304 WAT       0.1312
  18305 WAT        20.4090    8.5940   15.5910 O      18305 WAT       0.0626
  18306 WAT        20.4090    8.5940   24.3410 O      18306 WAT       0.0476
  18307 WAT        20.4090    8.5940   24.5910 O      18307 WAT       0.0627
  18308 WAT        20.4090    8.5940   24.8410 O      18308 WAT       0.0658
  18309 WAT        20.4090    8.5940   25.0910 O      18309 WAT       0.0532
  18310 WAT        20.4090    8.5940   26.5910 O      18310 WAT       0.0537
  18311 WAT        20.4090    8.5940   26.8410 O      18311 WAT       0.0654
  18312 WAT        20.4090    8.5940   27.0910 O      18312 WAT       0.0684
  18313 WAT        20.4090    8.5940   27.3410 O      18313 WAT       0.0570
  18314 WAT        20.4090    8.8440   14.3410 O      18314 WAT       0.0589
  18315 WAT        20.4090    8.8440   14.5910 O      18315 WAT       0.1066
  18316 WAT        20.4090    8.8440   14.8410 O      18316 WAT       0.1440
  18317 WAT        20.4090    8.8440   15.0910 O      18317 WAT       0.1404
  18318 WAT        20.4090    8.8440   15.3410 O      18318 WAT       0.0977
  18319 WAT        20.4090    8.8440   15.5910 O      18319 WAT       0.0484
  18320 WAT        20.4090    8.8440   26.5910 O      18320 WAT       0.0587
  18321 WAT        20.4090    8.8440   26.8410 O      18321 WAT       0.0691
  18322 WAT        20.4090    8.8440   27.0910 O      18322 WAT       0.0685
  18323 WAT        20.4090    8.8440   27.3410 O      18323 WAT       0.0538
  18324 WAT        20.4090    9.0940   14.5910 O      18324 WAT       0.0481
  18325 WAT        20.4090    9.0940   14.8410 O      18325 WAT       0.0653
  18326 WAT        20.4090    9.0940   15.0910 O      18326 WAT       0.0649
  18327 WAT        20.4090    9.0940   15.3410 O      18327 WAT       0.0464
  18328 WAT        20.4090    9.0940   26.5910 O      18328 WAT       0.0502
  18329 WAT        20.4090    9.0940   26.8410 O      18329 WAT       0.0593
  18330 WAT        20.4090    9.0940   27.0910 O      18330 WAT       0.0580
  18331 WAT        20.4090   10.3440   12.0910 O      18331 WAT       0.0671
  18332 WAT        20.4090   10.3440   12.3410 O      18332 WAT       0.0813
  18333 WAT        20.4090   10.3440   12.5910 O      18333 WAT       0.0783
  18334 WAT        20.4090   10.3440   12.8410 O      18334 WAT       0.0605
  18335 WAT        20.4090   10.5940   11.5910 O      18335 WAT       0.0494
  18336 WAT        20.4090   10.5940   11.8410 O      18336 WAT       0.0869
  18337 WAT        20.4090   10.5940   12.0910 O      18337 WAT       0.1221
  18338 WAT        20.4090   10.5940   12.3410 O      18338 WAT       0.1357
  18339 WAT        20.4090   10.5940   12.5910 O      18339 WAT       0.1196
  18340 WAT        20.4090   10.5940   12.8410 O      18340 WAT       0.0843
  18341 WAT        20.4090   10.5940   13.0910 O      18341 WAT       0.0485
  18342 WAT        20.4090   10.8440   11.5910 O      18342 WAT       0.0807
  18343 WAT        20.4090   10.8440   11.8410 O      18343 WAT       0.1311
  18344 WAT        20.4090   10.8440   12.0910 O      18344 WAT       0.1696
  18345 WAT        20.4090   10.8440   12.3410 O      18345 WAT       0.1731
  18346 WAT        20.4090   10.8440   12.5910 O      18346 WAT       0.1401
  18347 WAT        20.4090   10.8440   12.8410 O      18347 WAT       0.0908
  18348 WAT        20.4090   10.8440   13.0910 O      18348 WAT       0.0479
  18349 WAT        20.4090   11.0940   11.3410 O      18349 WAT       0.0535
  18350 WAT        20.4090   11.0940   11.5910 O      18350 WAT       0.0971
  18351 WAT        20.4090   11.0940   11.8410 O      18351 WAT       0.1450
  18352 WAT        20.4090   11.0940   12.0910 O      18352 WAT       0.1726
  18353 WAT        20.4090   11.0940   12.3410 O      18353 WAT       0.1624
  18354 WAT        20.4090   11.0940   12.5910 O      18354 WAT       0.1213
  18355 WAT        20.4090   11.0940   12.8410 O      18355 WAT       0.0728
  18356 WAT        20.4090   11.3440   11.3410 O      18356 WAT       0.0507
  18357 WAT        20.4090   11.3440   11.5910 O      18357 WAT       0.0837
  18358 WAT        20.4090   11.3440   11.8410 O      18358 WAT       0.1141
  18359 WAT        20.4090   11.3440   12.0910 O      18359 WAT       0.1248
  18360 WAT        20.4090   11.3440   12.3410 O      18360 WAT       0.1084
  18361 WAT        20.4090   11.3440   12.5910 O      18361 WAT       0.0751
  18362 WAT        20.4090   11.5940   11.5910 O      18362 WAT       0.0504
  18363 WAT        20.4090   11.5940   11.8410 O      18363 WAT       0.0623
  18364 WAT        20.4090   11.5940   12.0910 O      18364 WAT       0.0623
  18365 WAT        20.4090   11.5940   12.3410 O      18365 WAT       0.0499
  18366 WAT        20.4090   12.0940    9.5910 O      18366 WAT       0.0460
  18367 WAT        20.4090   12.0940    9.8410 O      18367 WAT       0.0452
  18368 WAT        20.4090   12.3440    9.5910 O      18368 WAT       0.0462
  18369 WAT        20.4090   14.0940    9.0910 O      18369 WAT       0.0461
  18370 WAT        20.4090   14.3440    8.8410 O      18370 WAT       0.0475
  18371 WAT        20.4090   14.3440    9.0910 O      18371 WAT       0.0494
  18372 WAT        20.4090   14.5940    9.0910 O      18372 WAT       0.0457
  18373 WAT        20.4090   16.0940    4.5910 O      18373 WAT       0.0489
  18374 WAT        20.4090   16.0940    4.8410 O      18374 WAT       0.0495
  18375 WAT        20.4090   16.3440    4.3410 O      18375 WAT       0.0503
  18376 WAT        20.4090   16.3440    4.5910 O      18376 WAT       0.0535
  18377 WAT        20.4090   16.3440    4.8410 O      18377 WAT       0.0518
  18378 WAT        20.4090   16.5940    4.3410 O      18378 WAT       0.0483
  18379 WAT        20.4090   16.5940    4.5910 O      18379 WAT       0.0491
  18380 WAT        20.4090   16.5940    4.8410 O      18380 WAT       0.0456
  18381 WAT        20.4090   16.8440    9.0910 O      18381 WAT       0.0710
  18382 WAT        20.4090   16.8440    9.3410 O      18382 WAT       0.0822
  18383 WAT        20.4090   16.8440    9.5910 O      18383 WAT       0.0642
  18384 WAT        20.4090   17.0940    8.8410 O      18384 WAT       0.0621
  18385 WAT        20.4090   17.0940    9.0910 O      18385 WAT       0.0995
  18386 WAT        20.4090   17.0940    9.3410 O      18386 WAT       0.1098
  18387 WAT        20.4090   17.0940    9.5910 O      18387 WAT       0.0816
  18388 WAT        20.4090   17.3440    8.8410 O      18388 WAT       0.0655
  18389 WAT        20.4090   17.3440    9.0910 O      18389 WAT       0.0966
  18390 WAT        20.4090   17.3440    9.3410 O      18390 WAT       0.0992
  18391 WAT        20.4090   17.3440    9.5910 O      18391 WAT       0.0693
  18392 WAT        20.4090   17.5940    6.5910 O      18392 WAT       0.0463
  18393 WAT        20.4090   17.5940    6.8410 O      18393 WAT       0.0451
  18394 WAT        20.4090   17.5940    8.8410 O      18394 WAT       0.0504
  18395 WAT        20.4090   17.5940    9.0910 O      18395 WAT       0.0647
  18396 WAT        20.4090   17.5940    9.3410 O      18396 WAT       0.0603
  18397 WAT        20.4090   17.8440    6.5910 O      18397 WAT       0.0580
  18398 WAT        20.4090   17.8440    6.8410 O      18398 WAT       0.0606
  18399 WAT        20.4090   17.8440    7.0910 O      18399 WAT       0.0450
  18400 WAT        20.4090   18.0940    6.5910 O      18400 WAT       0.0531
  18401 WAT        20.4090   18.0940    6.8410 O      18401 WAT       0.0586
  18402 WAT        20.4090   18.0940    7.0910 O      18402 WAT       0.0457
  18403 WAT        20.4090   18.0940    8.3410 O      18403 WAT       0.0508
  18404 WAT        20.4090   18.3440    8.0910 O      18404 WAT       0.0587
  18405 WAT        20.4090   18.3440    8.3410 O      18405 WAT       0.0715
  18406 WAT        20.4090   18.3440    8.5910 O      18406 WAT       0.0572
  18407 WAT        20.4090   18.5940    8.0910 O      18407 WAT       0.0571
  18408 WAT        20.4090   18.5940    8.3410 O      18408 WAT       0.0693
  18409 WAT        20.4090   18.5940    8.5910 O      18409 WAT       0.0542
  18410 WAT        20.4090   27.3440   21.3410 O      18410 WAT       0.0513
  18411 WAT        20.4090   27.5940   18.5910 O      18411 WAT       0.0471
  18412 WAT        20.4090   27.5940   21.0910 O      18412 WAT       0.0500
  18413 WAT        20.4090   27.5940   21.3410 O      18413 WAT       0.0570
  18414 WAT        20.4090   27.5940   21.5910 O      18414 WAT       0.0480
  18415 WAT        20.4090   27.8440   18.3410 O      18415 WAT       0.0742
  18416 WAT        20.4090   27.8440   18.5910 O      18416 WAT       0.0866
  18417 WAT        20.4090   27.8440   18.8410 O      18417 WAT       0.0735
  18418 WAT        20.4090   27.8440   19.0910 O      18418 WAT       0.0486
  18419 WAT        20.4090   27.8440   21.0910 O      18419 WAT       0.0531
  18420 WAT        20.4090   27.8440   21.3410 O      18420 WAT       0.0572
  18421 WAT        20.4090   27.8440   21.5910 O      18421 WAT       0.0452
  18422 WAT        20.4090   28.0940   18.0910 O      18422 WAT       0.0559
  18423 WAT        20.4090   28.0940   18.3410 O      18423 WAT       0.0903
  18424 WAT        20.4090   28.0940   18.5910 O      18424 WAT       0.1014
  18425 WAT        20.4090   28.0940   18.8410 O      18425 WAT       0.0835
  18426 WAT        20.4090   28.0940   19.0910 O      18426 WAT       0.0543
  18427 WAT        20.4090   28.0940   20.8410 O      18427 WAT       0.0577
  18428 WAT        20.4090   28.0940   21.0910 O      18428 WAT       0.0749
  18429 WAT        20.4090   28.0940   21.3410 O      18429 WAT       0.0702
  18430 WAT        20.4090   28.0940   21.5910 O      18430 WAT       0.0478
  18431 WAT        20.4090   28.3440   18.3410 O      18431 WAT       0.0694
  18432 WAT        20.4090   28.3440   18.5910 O      18432 WAT       0.0755
  18433 WAT        20.4090   28.3440   18.8410 O      18433 WAT       0.0607
  18434 WAT        20.4090   28.3440   20.5910 O      18434 WAT       0.0688
  18435 WAT        20.4090   28.3440   20.8410 O      18435 WAT       0.1156
  18436 WAT        20.4090   28.3440   21.0910 O      18436 WAT       0.1379
  18437 WAT        20.4090   28.3440   21.3410 O      18437 WAT       0.1168
  18438 WAT        20.4090   28.3440   21.5910 O      18438 WAT       0.0699
  18439 WAT        20.4090   28.5940   20.3410 O      18439 WAT       0.0540
  18440 WAT        20.4090   28.5940   20.5910 O      18440 WAT       0.1212
  18441 WAT        20.4090   28.5940   20.8410 O      18441 WAT       0.1984
  18442 WAT        20.4090   28.5940   21.0910 O      18442 WAT       0.2320
  18443 WAT        20.4090   28.5940   21.3410 O      18443 WAT       0.1923
  18444 WAT        20.4090   28.5940   21.5910 O      18444 WAT       0.1126
  18445 WAT        20.4090   28.5940   21.8410 O      18445 WAT       0.0459
  18446 WAT        20.4090   28.8440   20.3410 O      18446 WAT       0.0665
  18447 WAT        20.4090   28.8440   20.5910 O      18447 WAT       0.1487
  18448 WAT        20.4090   28.8440   20.8410 O      18448 WAT       0.2447
  18449 WAT        20.4090   28.8440   21.0910 O      18449 WAT       0.2907
  18450 WAT        20.4090   28.8440   21.3410 O      18450 WAT       0.2482
  18451 WAT        20.4090   28.8440   21.5910 O      18451 WAT       0.1519
  18452 WAT        20.4090   28.8440   21.8410 O      18452 WAT       0.0658
  18453 WAT        20.4090   29.0940   20.3410 O      18453 WAT       0.0533
  18454 WAT        20.4090   29.0940   20.5910 O      18454 WAT       0.1215
  18455 WAT        20.4090   29.0940   20.8410 O      18455 WAT       0.2051
  18456 WAT        20.4090   29.0940   21.0910 O      18456 WAT       0.2544
  18457 WAT        20.4090   29.0940   21.3410 O      18457 WAT       0.2317
  18458 WAT        20.4090   29.0940   21.5910 O      18458 WAT       0.1543
  18459 WAT        20.4090   29.0940   21.8410 O      18459 WAT       0.0737
  18460 WAT        20.4090   29.3440   20.5910 O      18460 WAT       0.0649
  18461 WAT        20.4090   29.3440   20.8410 O      18461 WAT       0.1155
  18462 WAT        20.4090   29.3440   21.0910 O      18462 WAT       0.1541
  18463 WAT        20.4090   29.3440   21.3410 O      18463 WAT       0.1547
  18464 WAT        20.4090   29.3440   21.5910 O      18464 WAT       0.1151
  18465 WAT        20.4090   29.3440   21.8410 O      18465 WAT       0.0617
  18466 WAT        20.4090   29.5940   21.0910 O      18466 WAT       0.0653
  18467 WAT        20.4090   29.5940   21.3410 O      18467 WAT       0.0746
  18468 WAT        20.4090   29.5940   21.5910 O      18468 WAT       0.0632
  18469 WAT        20.4090   33.3440   10.5910 O      18469 WAT       0.0661
  18470 WAT        20.4090   33.3440   10.8410 O      18470 WAT       0.0694
  18471 WAT        20.4090   33.3440   11.0910 O      18471 WAT       0.0460
  18472 WAT        20.4090   33.5940   10.3410 O      18472 WAT       0.0856
  18473 WAT        20.4090   33.5940   10.5910 O      18473 WAT       0.1453
  18474 WAT        20.4090   33.5940   10.8410 O      18474 WAT       0.1572
  18475 WAT        20.4090   33.5940   11.0910 O      18475 WAT       0.1094
  18476 WAT        20.4090   33.5940   11.3410 O      18476 WAT       0.0488
  18477 WAT        20.4090   33.8440   10.3410 O      18477 WAT       0.1121
  18478 WAT        20.4090   33.8440   10.5910 O      18478 WAT       0.1959
  18479 WAT        20.4090   33.8440   10.8410 O      18479 WAT       0.2198
  18480 WAT        20.4090   33.8440   11.0910 O      18480 WAT       0.1604
  18481 WAT        20.4090   33.8440   11.3410 O      18481 WAT       0.0767
  18482 WAT        20.4090   34.0940   10.3410 O      18482 WAT       0.0901
  18483 WAT        20.4090   34.0940   10.5910 O      18483 WAT       0.1638
  18484 WAT        20.4090   34.0940   10.8410 O      18484 WAT       0.1924
  18485 WAT        20.4090   34.0940   11.0910 O      18485 WAT       0.1486
  18486 WAT        20.4090   34.0940   11.3410 O      18486 WAT       0.0765
  18487 WAT        20.4090   34.3440   10.5910 O      18487 WAT       0.0853
  18488 WAT        20.4090   34.3440   10.8410 O      18488 WAT       0.1062
  18489 WAT        20.4090   34.3440   11.0910 O      18489 WAT       0.0878
  18490 WAT        20.4090   34.3440   11.3410 O      18490 WAT       0.0489
  18491 WAT        20.4090   34.5940   29.0910 O      18491 WAT       0.0506
  18492 WAT        20.4090   34.5940   29.3410 O      18492 WAT       0.0533
  18493 WAT        20.4090   34.8440   29.0910 O      18493 WAT       0.0533
  18494 WAT        20.4090   34.8440   29.3410 O      18494 WAT       0.0559
  18495 WAT        20.6590    8.3440   14.3410 O      18495 WAT       0.0640
  18496 WAT        20.6590    8.3440   14.5910 O      18496 WAT       0.1133
  18497 WAT        20.6590    8.3440   14.8410 O      18497 WAT       0.1485
  18498 WAT        20.6590    8.3440   15.0910 O      18498 WAT       0.1415
  18499 WAT        20.6590    8.3440   15.3410 O      18499 WAT       0.0975
  18500 WAT        20.6590    8.3440   15.5910 O      18500 WAT       0.0487
  18501 WAT        20.6590    8.3440   23.5910 O      18501 WAT       0.0504
  18502 WAT        20.6590    8.3440   23.8410 O      18502 WAT       0.0706
  18503 WAT        20.6590    8.3440   24.0910 O      18503 WAT       0.0895
  18504 WAT        20.6590    8.3440   24.3410 O      18504 WAT       0.1036
  18505 WAT        20.6590    8.3440   24.5910 O      18505 WAT       0.1049
  18506 WAT        20.6590    8.3440   24.8410 O      18506 WAT       0.0871
  18507 WAT        20.6590    8.3440   25.0910 O      18507 WAT       0.0570
  18508 WAT        20.6590    8.3440   26.5910 O      18508 WAT       0.0452
  18509 WAT        20.6590    8.3440   26.8410 O      18509 WAT       0.0560
  18510 WAT        20.6590    8.3440   27.0910 O      18510 WAT       0.0631
  18511 WAT        20.6590    8.3440   27.3410 O      18511 WAT       0.0579
  18512 WAT        20.6590    8.5940   14.3410 O      18512 WAT       0.0640
  18513 WAT        20.6590    8.5940   14.5910 O      18513 WAT       0.1194
  18514 WAT        20.6590    8.5940   14.8410 O      18514 WAT       0.1651
  18515 WAT        20.6590    8.5940   15.0910 O      18515 WAT       0.1658
  18516 WAT        20.6590    8.5940   15.3410 O      18516 WAT       0.1204
  18517 WAT        20.6590    8.5940   15.5910 O      18517 WAT       0.0639
  18518 WAT        20.6590    8.5940   23.8410 O      18518 WAT       0.0476
  18519 WAT        20.6590    8.5940   24.0910 O      18519 WAT       0.0617
  18520 WAT        20.6590    8.5940   24.3410 O      18520 WAT       0.0736
  18521 WAT        20.6590    8.5940   24.5910 O      18521 WAT       0.0780
  18522 WAT        20.6590    8.5940   24.8410 O      18522 WAT       0.0693
  18523 WAT        20.6590    8.5940   25.0910 O      18523 WAT       0.0495
  18524 WAT        20.6590    8.5940   26.5910 O      18524 WAT       0.0496
  18525 WAT        20.6590    8.5940   26.8410 O      18525 WAT       0.0539
  18526 WAT        20.6590    8.5940   27.0910 O      18526 WAT       0.0535
  18527 WAT        20.6590    8.8440   14.3410 O      18527 WAT       0.0453
  18528 WAT        20.6590    8.8440   14.5910 O      18528 WAT       0.0854
  18529 WAT        20.6590    8.8440   14.8410 O      18529 WAT       0.1218
  18530 WAT        20.6590    8.8440   15.0910 O      18530 WAT       0.1270
  18531 WAT        20.6590    8.8440   15.3410 O      18531 WAT       0.0964
  18532 WAT        20.6590    8.8440   15.5910 O      18532 WAT       0.0539
  18533 WAT        20.6590    8.8440   26.5910 O      18533 WAT       0.0457
  18534 WAT        20.6590    8.8440   26.8410 O      18534 WAT       0.0460
  18535 WAT        20.6590    9.0940   14.8410 O      18535 WAT       0.0586
  18536 WAT        20.6590    9.0940   15.0910 O      18536 WAT       0.0628
  18537 WAT        20.6590    9.0940   15.3410 O      18537 WAT       0.0495
  18538 WAT        20.6590   10.3440   12.3410 O      18538 WAT       0.0540
  18539 WAT        20.6590   10.3440   12.5910 O      18539 WAT       0.0583
  18540 WAT        20.6590   10.3440   12.8410 O      18540 WAT       0.0513
  18541 WAT        20.6590   10.5940   11.8410 O      18541 WAT       0.0503
  18542 WAT        20.6590   10.5940   12.0910 O      18542 WAT       0.0777
  18543 WAT        20.6590   10.5940   12.3410 O      18543 WAT       0.0963
  18544 WAT        20.6590   10.5940   12.5910 O      18544 WAT       0.0960
  18545 WAT        20.6590   10.5940   12.8410 O      18545 WAT       0.0777
  18546 WAT        20.6590   10.5940   13.0910 O      18546 WAT       0.0523
  18547 WAT        20.6590   10.8440   11.8410 O      18547 WAT       0.0796
  18548 WAT        20.6590   10.8440   12.0910 O      18548 WAT       0.1147
  18549 WAT        20.6590   10.8440   12.3410 O      18549 WAT       0.1322
  18550 WAT        20.6590   10.8440   12.5910 O      18550 WAT       0.1225
  18551 WAT        20.6590   10.8440   12.8410 O      18551 WAT       0.0921
  18552 WAT        20.6590   10.8440   13.0910 O      18552 WAT       0.0573
  18553 WAT        20.6590   11.0940   11.5910 O      18553 WAT       0.0560
  18554 WAT        20.6590   11.0940   11.8410 O      18554 WAT       0.0922
  18555 WAT        20.6590   11.0940   12.0910 O      18555 WAT       0.1238
  18556 WAT        20.6590   11.0940   12.3410 O      18556 WAT       0.1333
  18557 WAT        20.6590   11.0940   12.5910 O      18557 WAT       0.1156
  18558 WAT        20.6590   11.0940   12.8410 O      18558 WAT       0.0815
  18559 WAT        20.6590   11.0940   13.0910 O      18559 WAT       0.0477
  18560 WAT        20.6590   11.3440   11.5910 O      18560 WAT       0.0498
  18561 WAT        20.6590   11.3440   11.8410 O      18561 WAT       0.0755
  18562 WAT        20.6590   11.3440   12.0910 O      18562 WAT       0.0943
  18563 WAT        20.6590   11.3440   12.3410 O      18563 WAT       0.0952
  18564 WAT        20.6590   11.3440   12.5910 O      18564 WAT       0.0777
  18565 WAT        20.6590   11.3440   12.8410 O      18565 WAT       0.0519
  18566 WAT        20.6590   11.5940   12.0910 O      18566 WAT       0.0492
  18567 WAT        20.6590   11.5940   12.3410 O      18567 WAT       0.0466
  18568 WAT        20.6590   14.0940    9.0910 O      18568 WAT       0.0460
  18569 WAT        20.6590   14.3440    9.0910 O      18569 WAT       0.0491
  18570 WAT        20.6590   14.3440    9.3410 O      18570 WAT       0.0462
  18571 WAT        20.6590   14.5940    9.0910 O      18571 WAT       0.0457
  18572 WAT        20.6590   16.0940    4.5910 O      18572 WAT       0.0478
  18573 WAT        20.6590   16.0940    4.8410 O      18573 WAT       0.0484
  18574 WAT        20.6590   16.0940    7.5910 O      18574 WAT       0.0479
  18575 WAT        20.6590   16.0940    7.8410 O      18575 WAT       0.0468
  18576 WAT        20.6590   16.3440    4.3410 O      18576 WAT       0.0492
  18577 WAT        20.6590   16.3440    4.5910 O      18577 WAT       0.0527
  18578 WAT        20.6590   16.3440    4.8410 O      18578 WAT       0.0513
  18579 WAT        20.6590   16.3440    7.3410 O      18579 WAT       0.0480
  18580 WAT        20.6590   16.3440    7.5910 O      18580 WAT       0.0492
  18581 WAT        20.6590   16.5940    4.3410 O      18581 WAT       0.0476
  18582 WAT        20.6590   16.5940    4.5910 O      18582 WAT       0.0492
  18583 WAT        20.6590   16.5940    4.8410 O      18583 WAT       0.0466
  18584 WAT        20.6590   16.8440    9.0910 O      18584 WAT       0.0499
  18585 WAT        20.6590   16.8440    9.3410 O      18585 WAT       0.0547
  18586 WAT        20.6590   17.0940    9.0910 O      18586 WAT       0.0687
  18587 WAT        20.6590   17.0940    9.3410 O      18587 WAT       0.0731
  18588 WAT        20.6590   17.0940    9.5910 O      18588 WAT       0.0525
  18589 WAT        20.6590   17.3440    8.8410 O      18589 WAT       0.0464
  18590 WAT        20.6590   17.3440    9.0910 O      18590 WAT       0.0664
  18591 WAT        20.6590   17.3440    9.3410 O      18591 WAT       0.0665
  18592 WAT        20.6590   17.3440    9.5910 O      18592 WAT       0.0452
  18593 WAT        20.6590   17.8440    6.5910 O      18593 WAT       0.0549
  18594 WAT        20.6590   17.8440    6.8410 O      18594 WAT       0.0573
  18595 WAT        20.6590   18.0940    6.5910 O      18595 WAT       0.0539
  18596 WAT        20.6590   18.0940    6.8410 O      18596 WAT       0.0597
  18597 WAT        20.6590   18.0940    7.0910 O      18597 WAT       0.0466
  18598 WAT        20.6590   27.3440   21.0910 O      18598 WAT       0.0557
  18599 WAT        20.6590   27.3440   21.3410 O      18599 WAT       0.0609
  18600 WAT        20.6590   27.3440   21.5910 O      18600 WAT       0.0502
  18601 WAT        20.6590   27.5940   18.0910 O      18601 WAT       0.0623
  18602 WAT        20.6590   27.5940   18.3410 O      18602 WAT       0.1034
  18603 WAT        20.6590   27.5940   18.5910 O      18603 WAT       0.1172
  18604 WAT        20.6590   27.5940   18.8410 O      18604 WAT       0.0939
  18605 WAT        20.6590   27.5940   19.0910 O      18605 WAT       0.0566
  18606 WAT        20.6590   27.5940   20.8410 O      18606 WAT       0.0481
  18607 WAT        20.6590   27.5940   21.0910 O      18607 WAT       0.0685
  18608 WAT        20.6590   27.5940   21.3410 O      18608 WAT       0.0731
  18609 WAT        20.6590   27.5940   21.5910 O      18609 WAT       0.0577
  18610 WAT        20.6590   27.8440   17.8410 O      18610 WAT       0.0543
  18611 WAT        20.6590   27.8440   18.0910 O      18611 WAT       0.1277
  18612 WAT        20.6590   27.8440   18.3410 O      18612 WAT       0.2004
  18613 WAT        20.6590   27.8440   18.5910 O      18613 WAT       0.2161
  18614 WAT        20.6590   27.8440   18.8410 O      18614 WAT       0.1658
  18615 WAT        20.6590   27.8440   19.0910 O      18615 WAT       0.0962
  18616 WAT        20.6590   27.8440   19.3410 O      18616 WAT       0.0469
  18617 WAT        20.6590   27.8440   20.8410 O      18617 WAT       0.0603
  18618 WAT        20.6590   27.8440   21.0910 O      18618 WAT       0.0823
  18619 WAT        20.6590   27.8440   21.3410 O      18619 WAT       0.0824
  18620 WAT        20.6590   27.8440   21.5910 O      18620 WAT       0.0606
  18621 WAT        20.6590   28.0940   17.8410 O      18621 WAT       0.0747
  18622 WAT        20.6590   28.0940   18.0910 O      18622 WAT       0.1666
  18623 WAT        20.6590   28.0940   18.3410 O      18623 WAT       0.2503
  18624 WAT        20.6590   28.0940   18.5910 O      18624 WAT       0.2596
  18625 WAT        20.6590   28.0940   18.8410 O      18625 WAT       0.1925
  18626 WAT        20.6590   28.0940   19.0910 O      18626 WAT       0.1090
  18627 WAT        20.6590   28.0940   19.3410 O      18627 WAT       0.0523
  18628 WAT        20.6590   28.0940   20.5910 O      18628 WAT       0.0611
  18629 WAT        20.6590   28.0940   20.8410 O      18629 WAT       0.1051
  18630 WAT        20.6590   28.0940   21.0910 O      18630 WAT       0.1294
  18631 WAT        20.6590   28.0940   21.3410 O      18631 WAT       0.1144
  18632 WAT        20.6590   28.0940   21.5910 O      18632 WAT       0.0727
  18633 WAT        20.6590   28.3440   17.8410 O      18633 WAT       0.0646
  18634 WAT        20.6590   28.3440   18.0910 O      18634 WAT       0.1387
  18635 WAT        20.6590   28.3440   18.3410 O      18635 WAT       0.2007
  18636 WAT        20.6590   28.3440   18.5910 O      18636 WAT       0.2013
  18637 WAT        20.6590   28.3440   18.8410 O      18637 WAT       0.1456
  18638 WAT        20.6590   28.3440   19.0910 O      18638 WAT       0.0814
  18639 WAT        20.6590   28.3440   20.3410 O      18639 WAT       0.0590
  18640 WAT        20.6590   28.3440   20.5910 O      18640 WAT       0.1318
  18641 WAT        20.6590   28.3440   20.8410 O      18641 WAT       0.2139
  18642 WAT        20.6590   28.3440   21.0910 O      18642 WAT       0.2454
  18643 WAT        20.6590   28.3440   21.3410 O      18643 WAT       0.1980
  18644 WAT        20.6590   28.3440   21.5910 O      18644 WAT       0.1126
  18645 WAT        20.6590   28.5940   18.0910 O      18645 WAT       0.0729
  18646 WAT        20.6590   28.5940   18.3410 O      18646 WAT       0.1023
  18647 WAT        20.6590   28.5940   18.5910 O      18647 WAT       0.0998
  18648 WAT        20.6590   28.5940   18.8410 O      18648 WAT       0.0705
  18649 WAT        20.6590   28.5940   20.3410 O      18649 WAT       0.1040
  18650 WAT        20.6590   28.5940   20.5910 O      18650 WAT       0.2278
  18651 WAT        20.6590   28.5940   20.8410 O      18651 WAT       0.3622
  18652 WAT        20.6590   28.5940   21.0910 O      18652 WAT       0.4067
  18653 WAT        20.6590   28.5940   21.3410 O      18653 WAT       0.3201
  18654 WAT        20.6590   28.5940   21.5910 O      18654 WAT       0.1766
  18655 WAT        20.6590   28.5940   21.8410 O      18655 WAT       0.0677
  18656 WAT        20.6590   28.8440   20.3410 O      18656 WAT       0.1252
  18657 WAT        20.6590   28.8440   20.5910 O      18657 WAT       0.2731
  18658 WAT        20.6590   28.8440   20.8410 O      18658 WAT       0.4342
  18659 WAT        20.6590   28.8440   21.0910 O      18659 WAT       0.4911
  18660 WAT        20.6590   28.8440   21.3410 O      18660 WAT       0.3928
  18661 WAT        20.6590   28.8440   21.5910 O      18661 WAT       0.2223
  18662 WAT        20.6590   28.8440   21.8410 O      18662 WAT       0.0885
  18663 WAT        20.6590   29.0940   20.3410 O      18663 WAT       0.0985
  18664 WAT        20.6590   29.0940   20.5910 O      18664 WAT       0.2168
  18665 WAT        20.6590   29.0940   20.8410 O      18665 WAT       0.3498
  18666 WAT        20.6590   29.0940   21.0910 O      18666 WAT       0.4066
  18667 WAT        20.6590   29.0940   21.3410 O      18667 WAT       0.3398
  18668 WAT        20.6590   29.0940   21.5910 O      18668 WAT       0.2045
  18669 WAT        20.6590   29.0940   21.8410 O      18669 WAT       0.0878
  18670 WAT        20.6590   29.3440   20.3410 O      18670 WAT       0.0494
  18671 WAT        20.6590   29.3440   20.5910 O      18671 WAT       0.1120
  18672 WAT        20.6590   29.3440   20.8410 O      18672 WAT       0.1867
  18673 WAT        20.6590   29.3440   21.0910 O      18673 WAT       0.2279
  18674 WAT        20.6590   29.3440   21.3410 O      18674 WAT       0.2044
  18675 WAT        20.6590   29.3440   21.5910 O      18675 WAT       0.1347
  18676 WAT        20.6590   29.3440   21.8410 O      18676 WAT       0.0640
  18677 WAT        20.6590   29.5940   20.8410 O      18677 WAT       0.0657
  18678 WAT        20.6590   29.5940   21.0910 O      18678 WAT       0.0869
  18679 WAT        20.6590   29.5940   21.3410 O      18679 WAT       0.0863
  18680 WAT        20.6590   29.5940   21.5910 O      18680 WAT       0.0637
  18681 WAT        20.6590   33.3440   10.3410 O      18681 WAT       0.0883
  18682 WAT        20.6590   33.3440   10.5910 O      18682 WAT       0.1481
  18683 WAT        20.6590   33.3440   10.8410 O      18683 WAT       0.1579
  18684 WAT        20.6590   33.3440   11.0910 O      18684 WAT       0.1080
  18685 WAT        20.6590   33.3440   11.3410 O      18685 WAT       0.0471
  18686 WAT        20.6590   33.5940   10.0910 O      18686 WAT       0.0692
  18687 WAT        20.6590   33.5940   10.3410 O      18687 WAT       0.1877
  18688 WAT        20.6590   33.5940   10.5910 O      18688 WAT       0.3214
  18689 WAT        20.6590   33.5940   10.8410 O      18689 WAT       0.3535
  18690 WAT        20.6590   33.5940   11.0910 O      18690 WAT       0.2520
  18691 WAT        20.6590   33.5940   11.3410 O      18691 WAT       0.1177
  18692 WAT        20.6590   33.8440   10.0910 O      18692 WAT       0.0882
  18693 WAT        20.6590   33.8440   10.3410 O      18693 WAT       0.2443
  18694 WAT        20.6590   33.8440   10.5910 O      18694 WAT       0.4314
  18695 WAT        20.6590   33.8440   10.8410 O      18695 WAT       0.4929
  18696 WAT        20.6590   33.8440   11.0910 O      18696 WAT       0.3690
  18697 WAT        20.6590   33.8440   11.3410 O      18697 WAT       0.1841
  18698 WAT        20.6590   33.8440   11.5910 O      18698 WAT       0.0618
  18699 WAT        20.6590   34.0940   10.0910 O      18699 WAT       0.0686
  18700 WAT        20.6590   34.0940   10.3410 O      18700 WAT       0.1968
  18701 WAT        20.6590   34.0940   10.5910 O      18701 WAT       0.3610
  18702 WAT        20.6590   34.0940   10.8410 O      18702 WAT       0.4326
  18703 WAT        20.6590   34.0940   11.0910 O      18703 WAT       0.3442
  18704 WAT        20.6590   34.0940   11.3410 O      18704 WAT       0.1863
  18705 WAT        20.6590   34.0940   11.5910 O      18705 WAT       0.0698
  18706 WAT        20.6590   34.3440   10.3410 O      18706 WAT       0.0983
  18707 WAT        20.6590   34.3440   10.5910 O      18707 WAT       0.1898
  18708 WAT        20.6590   34.3440   10.8410 O      18708 WAT       0.2414
  18709 WAT        20.6590   34.3440   11.0910 O      18709 WAT       0.2075
  18710 WAT        20.6590   34.3440   11.3410 O      18710 WAT       0.1239
  18711 WAT        20.6590   34.3440   11.5910 O      18711 WAT       0.0524
  18712 WAT        20.6590   34.3440   28.5910 O      18712 WAT       0.0460
  18713 WAT        20.6590   34.3440   28.8410 O      18713 WAT       0.0678
  18714 WAT        20.6590   34.3440   29.0910 O      18714 WAT       0.0787
  18715 WAT        20.6590   34.3440   29.3410 O      18715 WAT       0.0699
  18716 WAT        20.6590   34.3440   29.5910 O      18716 WAT       0.0451
  18717 WAT        20.6590   34.5940   10.5910 O      18717 WAT       0.0625
  18718 WAT        20.6590   34.5940   10.8410 O      18718 WAT       0.0862
  18719 WAT        20.6590   34.5940   11.0910 O      18719 WAT       0.0813
  18720 WAT        20.6590   34.5940   11.3410 O      18720 WAT       0.0542
  18721 WAT        20.6590   34.5940   28.5910 O      18721 WAT       0.0695
  18722 WAT        20.6590   34.5940   28.8410 O      18722 WAT       0.1023
  18723 WAT        20.6590   34.5940   29.0910 O      18723 WAT       0.1189
  18724 WAT        20.6590   34.5940   29.3410 O      18724 WAT       0.1059
  18725 WAT        20.6590   34.5940   29.5910 O      18725 WAT       0.0685
  18726 WAT        20.6590   34.8440   28.5910 O      18726 WAT       0.0725
  18727 WAT        20.6590   34.8440   28.8410 O      18727 WAT       0.1067
  18728 WAT        20.6590   34.8440   29.0910 O      18728 WAT       0.1238
  18729 WAT        20.6590   34.8440   29.3410 O      18729 WAT       0.1100
  18730 WAT        20.6590   34.8440   29.5910 O      18730 WAT       0.0709
  18731 WAT        20.6590   35.0940   28.5910 O      18731 WAT       0.0519
  18732 WAT        20.6590   35.0940   28.8410 O      18732 WAT       0.0765
  18733 WAT        20.6590   35.0940   29.0910 O      18733 WAT       0.0885
  18734 WAT        20.6590   35.0940   29.3410 O      18734 WAT       0.0781
  18735 WAT        20.6590   35.0940   29.5910 O      18735 WAT       0.0500
  18736 WAT        20.9090    8.3440   14.5910 O      18736 WAT       0.0734
  18737 WAT        20.9090    8.3440   14.8410 O      18737 WAT       0.1023
  18738 WAT        20.9090    8.3440   15.0910 O      18738 WAT       0.1057
  18739 WAT        20.9090    8.3440   15.3410 O      18739 WAT       0.0810
  18740 WAT        20.9090    8.3440   15.5910 O      18740 WAT       0.0467
  18741 WAT        20.9090    8.3440   19.3410 O      18741 WAT       0.0487
  18742 WAT        20.9090    8.3440   19.5910 O      18742 WAT       0.0669
  18743 WAT        20.9090    8.3440   19.8410 O      18743 WAT       0.0694
  18744 WAT        20.9090    8.3440   20.0910 O      18744 WAT       0.0556
  18745 WAT        20.9090    8.3440   23.0910 O      18745 WAT       0.0553
  18746 WAT        20.9090    8.3440   23.3410 O      18746 WAT       0.0818
  18747 WAT        20.9090    8.3440   23.5910 O      18747 WAT       0.1094
  18748 WAT        20.9090    8.3440   23.8410 O      18748 WAT       0.1279
  18749 WAT        20.9090    8.3440   24.0910 O      18749 WAT       0.1318
  18750 WAT        20.9090    8.3440   24.3410 O      18750 WAT       0.1223
  18751 WAT        20.9090    8.3440   24.5910 O      18751 WAT       0.1008
  18752 WAT        20.9090    8.3440   24.8410 O      18752 WAT       0.0707
  18753 WAT        20.9090    8.3440   26.5910 O      18753 WAT       0.0463
  18754 WAT        20.9090    8.3440   26.8410 O      18754 WAT       0.0502
  18755 WAT        20.9090    8.3440   27.0910 O      18755 WAT       0.0516
  18756 WAT        20.9090    8.3440   27.3410 O      18756 WAT       0.0456
  18757 WAT        20.9090    8.5940   14.5910 O      18757 WAT       0.0807
  18758 WAT        20.9090    8.5940   14.8410 O      18758 WAT       0.1198
  18759 WAT        20.9090    8.5940   15.0910 O      18759 WAT       0.1320
  18760 WAT        20.9090    8.5940   15.3410 O      18760 WAT       0.1083
  18761 WAT        20.9090    8.5940   15.5910 O      18761 WAT       0.0679
  18762 WAT        20.9090    8.5940   19.3410 O      18762 WAT       0.0698
  18763 WAT        20.9090    8.5940   19.5910 O      18763 WAT       0.0977
  18764 WAT        20.9090    8.5940   19.8410 O      18764 WAT       0.1038
  18765 WAT        20.9090    8.5940   20.0910 O      18765 WAT       0.0859
  18766 WAT        20.9090    8.5940   20.3410 O      18766 WAT       0.0564
  18767 WAT        20.9090    8.5940   23.3410 O      18767 WAT       0.0620
  18768 WAT        20.9090    8.5940   23.5910 O      18768 WAT       0.0805
  18769 WAT        20.9090    8.5940   23.8410 O      18769 WAT       0.0937
  18770 WAT        20.9090    8.5940   24.0910 O      18770 WAT       0.0975
  18771 WAT        20.9090    8.5940   24.3410 O      18771 WAT       0.0920
  18772 WAT        20.9090    8.5940   24.5910 O      18772 WAT       0.0780
  18773 WAT        20.9090    8.5940   24.8410 O      18773 WAT       0.0576
  18774 WAT        20.9090    8.5940   26.3410 O      18774 WAT       0.0470
  18775 WAT        20.9090    8.5940   26.5910 O      18775 WAT       0.0498
  18776 WAT        20.9090    8.5940   26.8410 O      18776 WAT       0.0464
  18777 WAT        20.9090    8.8440   14.5910 O      18777 WAT       0.0610
  18778 WAT        20.9090    8.8440   14.8410 O      18778 WAT       0.0941
  18779 WAT        20.9090    8.8440   15.0910 O      18779 WAT       0.1088
  18780 WAT        20.9090    8.8440   15.3410 O      18780 WAT       0.0948
  18781 WAT        20.9090    8.8440   15.5910 O      18781 WAT       0.0641
  18782 WAT        20.9090    8.8440   19.3410 O      18782 WAT       0.0698
  18783 WAT        20.9090    8.8440   19.5910 O      18783 WAT       0.1012
  18784 WAT        20.9090    8.8440   19.8410 O      18784 WAT       0.1118
  18785 WAT        20.9090    8.8440   20.0910 O      18785 WAT       0.0966
  18786 WAT        20.9090    8.8440   20.3410 O      18786 WAT       0.0665
  18787 WAT        20.9090    8.8440   23.8410 O      18787 WAT       0.0497
  18788 WAT        20.9090    8.8440   24.0910 O      18788 WAT       0.0519
  18789 WAT        20.9090    8.8440   24.3410 O      18789 WAT       0.0498
  18790 WAT        20.9090    9.0940   14.8410 O      18790 WAT       0.0487
  18791 WAT        20.9090    9.0940   15.0910 O      18791 WAT       0.0585
  18792 WAT        20.9090    9.0940   15.3410 O      18792 WAT       0.0539
  18793 WAT        20.9090    9.0940   19.3410 O      18793 WAT       0.0486
  18794 WAT        20.9090    9.0940   19.5910 O      18794 WAT       0.0745
  18795 WAT        20.9090    9.0940   19.8410 O      18795 WAT       0.0867
  18796 WAT        20.9090    9.0940   20.0910 O      18796 WAT       0.0787
  18797 WAT        20.9090    9.0940   20.3410 O      18797 WAT       0.0570
  18798 WAT        20.9090    9.3440   19.8410 O      18798 WAT       0.0476
  18799 WAT        20.9090    9.3440   20.0910 O      18799 WAT       0.0456
  18800 WAT        20.9090   10.5940   12.3410 O      18800 WAT       0.0604
  18801 WAT        20.9090   10.5940   12.5910 O      18801 WAT       0.0672
  18802 WAT        20.9090   10.5940   12.8410 O      18802 WAT       0.0620
  18803 WAT        20.9090   10.5940   13.0910 O      18803 WAT       0.0486
  18804 WAT        20.9090   10.8440   12.0910 O      18804 WAT       0.0691
  18805 WAT        20.9090   10.8440   12.3410 O      18805 WAT       0.0879
  18806 WAT        20.9090   10.8440   12.5910 O      18806 WAT       0.0915
  18807 WAT        20.9090   10.8440   12.8410 O      18807 WAT       0.0786
  18808 WAT        20.9090   10.8440   13.0910 O      18808 WAT       0.0573
  18809 WAT        20.9090   11.0940   11.8410 O      18809 WAT       0.0533
  18810 WAT        20.9090   11.0940   12.0910 O      18810 WAT       0.0786
  18811 WAT        20.9090   11.0940   12.3410 O      18811 WAT       0.0947
  18812 WAT        20.9090   11.0940   12.5910 O      18812 WAT       0.0930
  18813 WAT        20.9090   11.0940   12.8410 O      18813 WAT       0.0756
  18814 WAT        20.9090   11.0940   13.0910 O      18814 WAT       0.0523
  18815 WAT        20.9090   11.3440   11.8410 O      18815 WAT       0.0454
  18816 WAT        20.9090   11.3440   12.0910 O      18816 WAT       0.0631
  18817 WAT        20.9090   11.3440   12.3410 O      18817 WAT       0.0722
  18818 WAT        20.9090   11.3440   12.5910 O      18818 WAT       0.0677
  18819 WAT        20.9090   11.3440   12.8410 O      18819 WAT       0.0528
  18820 WAT        20.9090   14.0940    9.0910 O      18820 WAT       0.0463
  18821 WAT        20.9090   14.0940    9.3410 O      18821 WAT       0.0484
  18822 WAT        20.9090   14.3440    9.0910 O      18822 WAT       0.0500
  18823 WAT        20.9090   14.3440    9.3410 O      18823 WAT       0.0509
  18824 WAT        20.9090   14.5940    9.0910 O      18824 WAT       0.0476
  18825 WAT        20.9090   14.5940    9.3410 O      18825 WAT       0.0469
  18826 WAT        20.9090   16.0940    4.8410 O      18826 WAT       0.0455
  18827 WAT        20.9090   16.0940    7.5910 O      18827 WAT       0.0484
  18828 WAT        20.9090   16.0940    7.8410 O      18828 WAT       0.0473
  18829 WAT        20.9090   16.3440    4.3410 O      18829 WAT       0.0473
  18830 WAT        20.9090   16.3440    4.5910 O      18830 WAT       0.0508
  18831 WAT        20.9090   16.3440    4.8410 O      18831 WAT       0.0499
  18832 WAT        20.9090   16.3440    7.0910 O      18832 WAT       0.0466
  18833 WAT        20.9090   16.3440    7.3410 O      18833 WAT       0.0542
  18834 WAT        20.9090   16.3440    7.5910 O      18834 WAT       0.0556
  18835 WAT        20.9090   16.3440    7.8410 O      18835 WAT       0.0501
  18836 WAT        20.9090   16.5940    4.3410 O      18836 WAT       0.0471
  18837 WAT        20.9090   16.5940    4.5910 O      18837 WAT       0.0493
  18838 WAT        20.9090   16.5940    4.8410 O      18838 WAT       0.0476
  18839 WAT        20.9090   16.5940    7.0910 O      18839 WAT       0.0518
  18840 WAT        20.9090   16.5940    7.3410 O      18840 WAT       0.0551
  18841 WAT        20.9090   16.5940    7.5910 O      18841 WAT       0.0519
  18842 WAT        20.9090   16.8440    6.8410 O      18842 WAT       0.0464
  18843 WAT        20.9090   16.8440    7.0910 O      18843 WAT       0.0486
  18844 WAT        20.9090   16.8440    7.3410 O      18844 WAT       0.0466
  18845 WAT        20.9090   17.8440    6.5910 O      18845 WAT       0.0480
  18846 WAT        20.9090   17.8440    6.8410 O      18846 WAT       0.0492
  18847 WAT        20.9090   18.0940    6.5910 O      18847 WAT       0.0467
  18848 WAT        20.9090   18.0940    6.8410 O      18848 WAT       0.0512
  18849 WAT        20.9090   27.3440   18.3410 O      18849 WAT       0.0616
  18850 WAT        20.9090   27.3440   18.5910 O      18850 WAT       0.0701
  18851 WAT        20.9090   27.3440   18.8410 O      18851 WAT       0.0554
  18852 WAT        20.9090   27.3440   21.0910 O      18852 WAT       0.0483
  18853 WAT        20.9090   27.3440   21.3410 O      18853 WAT       0.0497
  18854 WAT        20.9090   27.5940   17.8410 O      18854 WAT       0.0499
  18855 WAT        20.9090   27.5940   18.0910 O      18855 WAT       0.1174
  18856 WAT        20.9090   27.5940   18.3410 O      18856 WAT       0.1837
  18857 WAT        20.9090   27.5940   18.5910 O      18857 WAT       0.1958
  18858 WAT        20.9090   27.5940   18.8410 O      18858 WAT       0.1455
  18859 WAT        20.9090   27.5940   19.0910 O      18859 WAT       0.0787
  18860 WAT        20.9090   27.5940   20.8410 O      18860 WAT       0.0462
  18861 WAT        20.9090   27.5940   21.0910 O      18861 WAT       0.0619
  18862 WAT        20.9090   27.5940   21.3410 O      18862 WAT       0.0622
  18863 WAT        20.9090   27.5940   21.5910 O      18863 WAT       0.0464
  18864 WAT        20.9090   27.8440   17.8410 O      18864 WAT       0.1103
  18865 WAT        20.9090   27.8440   18.0910 O      18865 WAT       0.2429
  18866 WAT        20.9090   27.8440   18.3410 O      18866 WAT       0.3603
  18867 WAT        20.9090   27.8440   18.5910 O      18867 WAT       0.3654
  18868 WAT        20.9090   27.8440   18.8410 O      18868 WAT       0.2589
  18869 WAT        20.9090   27.8440   19.0910 O      18869 WAT       0.1341
  18870 WAT        20.9090   27.8440   19.3410 O      18870 WAT       0.0558
  18871 WAT        20.9090   27.8440   20.8410 O      18871 WAT       0.0631
  18872 WAT        20.9090   27.8440   21.0910 O      18872 WAT       0.0815
  18873 WAT        20.9090   27.8440   21.3410 O      18873 WAT       0.0766
  18874 WAT        20.9090   27.8440   21.5910 O      18874 WAT       0.0527
  18875 WAT        20.9090   28.0940   17.5910 O      18875 WAT       0.0491
  18876 WAT        20.9090   28.0940   17.8410 O      18876 WAT       0.1557
  18877 WAT        20.9090   28.0940   18.0910 O      18877 WAT       0.3265
  18878 WAT        20.9090   28.0940   18.3410 O      18878 WAT       0.4635
  18879 WAT        20.9090   28.0940   18.5910 O      18879 WAT       0.4512
  18880 WAT        20.9090   28.0940   18.8410 O      18880 WAT       0.3083
  18881 WAT        20.9090   28.0940   19.0910 O      18881 WAT       0.1551
  18882 WAT        20.9090   28.0940   19.3410 O      18882 WAT       0.0632
  18883 WAT        20.9090   28.0940   20.5910 O      18883 WAT       0.0711
  18884 WAT        20.9090   28.0940   20.8410 O      18884 WAT       0.1182
  18885 WAT        20.9090   28.0940   21.0910 O      18885 WAT       0.1395
  18886 WAT        20.9090   28.0940   21.3410 O      18886 WAT       0.1169
  18887 WAT        20.9090   28.0940   21.5910 O      18887 WAT       0.0698
  18888 WAT        20.9090   28.3440   17.5910 O      18888 WAT       0.0466
  18889 WAT        20.9090   28.3440   17.8410 O      18889 WAT       0.1412
  18890 WAT        20.9090   28.3440   18.0910 O      18890 WAT       0.2838
  18891 WAT        20.9090   28.3440   18.3410 O      18891 WAT       0.3874
  18892 WAT        20.9090   28.3440   18.5910 O      18892 WAT       0.3644
  18893 WAT        20.9090   28.3440   18.8410 O      18893 WAT       0.2422
  18894 WAT        20.9090   28.3440   19.0910 O      18894 WAT       0.1199
  18895 WAT        20.9090   28.3440   19.3410 O      18895 WAT       0.0489
  18896 WAT        20.9090   28.3440   20.3410 O      18896 WAT       0.0699
  18897 WAT        20.9090   28.3440   20.5910 O      18897 WAT       0.1542
  18898 WAT        20.9090   28.3440   20.8410 O      18898 WAT       0.2445
  18899 WAT        20.9090   28.3440   21.0910 O      18899 WAT       0.2712
  18900 WAT        20.9090   28.3440   21.3410 O      18900 WAT       0.2098
  18901 WAT        20.9090   28.3440   21.5910 O      18901 WAT       0.1133
  18902 WAT        20.9090   28.5940   17.8410 O      18902 WAT       0.0817
  18903 WAT        20.9090   28.5940   18.0910 O      18903 WAT       0.1585
  18904 WAT        20.9090   28.5940   18.3410 O      18904 WAT       0.2088
  18905 WAT        20.9090   28.5940   18.5910 O      18905 WAT       0.1906
  18906 WAT        20.9090   28.5940   18.8410 O      18906 WAT       0.1238
  18907 WAT        20.9090   28.5940   19.0910 O      18907 WAT       0.0604
  18908 WAT        20.9090   28.5940   20.3410 O      18908 WAT       0.1214
  18909 WAT        20.9090   28.5940   20.5910 O      18909 WAT       0.2629
  18910 WAT        20.9090   28.5940   20.8410 O      18910 WAT       0.4086
  18911 WAT        20.9090   28.5940   21.0910 O      18911 WAT       0.4438
  18912 WAT        20.9090   28.5940   21.3410 O      18912 WAT       0.3345
  18913 WAT        20.9090   28.5940   21.5910 O      18913 WAT       0.1750
  18914 WAT        20.9090   28.5940   21.8410 O      18914 WAT       0.0630
  18915 WAT        20.9090   28.8440   18.0910 O      18915 WAT       0.0558
  18916 WAT        20.9090   28.8440   18.3410 O      18916 WAT       0.0715
  18917 WAT        20.9090   28.8440   18.5910 O      18917 WAT       0.0633
  18918 WAT        20.9090   28.8440   20.0910 O      18918 WAT       0.0507
  18919 WAT        20.9090   28.8440   20.3410 O      18919 WAT       0.1433
  18920 WAT        20.9090   28.8440   20.5910 O      18920 WAT       0.3086
  18921 WAT        20.9090   28.8440   20.8410 O      18921 WAT       0.4780
  18922 WAT        20.9090   28.8440   21.0910 O      18922 WAT       0.5201
  18923 WAT        20.9090   28.8440   21.3410 O      18923 WAT       0.3951
  18924 WAT        20.9090   28.8440   21.5910 O      18924 WAT       0.2096
  18925 WAT        20.9090   28.8440   21.8410 O      18925 WAT       0.0772
  18926 WAT        20.9090   29.0940   20.3410 O      18926 WAT       0.1104
  18927 WAT        20.9090   29.0940   20.5910 O      18927 WAT       0.2387
  18928 WAT        20.9090   29.0940   20.8410 O      18928 WAT       0.3729
  18929 WAT        20.9090   29.0940   21.0910 O      18929 WAT       0.4129
  18930 WAT        20.9090   29.0940   21.3410 O      18930 WAT       0.3229
  18931 WAT        20.9090   29.0940   21.5910 O      18931 WAT       0.1788
  18932 WAT        20.9090   29.0940   21.8410 O      18932 WAT       0.0696
  18933 WAT        20.9090   29.3440   20.3410 O      18933 WAT       0.0540
  18934 WAT        20.9090   29.3440   20.5910 O      18934 WAT       0.1194
  18935 WAT        20.9090   29.3440   20.8410 O      18935 WAT       0.1908
  18936 WAT        20.9090   29.3440   21.0910 O      18936 WAT       0.2184
  18937 WAT        20.9090   29.3440   21.3410 O      18937 WAT       0.1795
  18938 WAT        20.9090   29.3440   21.5910 O      18938 WAT       0.1063
  18939 WAT        20.9090   29.5940   20.8410 O      18939 WAT       0.0633
  18940 WAT        20.9090   29.5940   21.0910 O      18940 WAT       0.0767
  18941 WAT        20.9090   29.5940   21.3410 O      18941 WAT       0.0678
  18942 WAT        20.9090   33.0940   10.5910 O      18942 WAT       0.0581
  18943 WAT        20.9090   33.0940   10.8410 O      18943 WAT       0.0615
  18944 WAT        20.9090   33.3440   10.3410 O      18944 WAT       0.1218
  18945 WAT        20.9090   33.3440   10.5910 O      18945 WAT       0.2068
  18946 WAT        20.9090   33.3440   10.8410 O      18946 WAT       0.2245
  18947 WAT        20.9090   33.3440   11.0910 O      18947 WAT       0.1574
  18948 WAT        20.9090   33.3440   11.3410 O      18948 WAT       0.0716
  18949 WAT        20.9090   33.5940   10.0910 O      18949 WAT       0.0945
  18950 WAT        20.9090   33.5940   10.3410 O      18950 WAT       0.2578
  18951 WAT        20.9090   33.5940   10.5910 O      18951 WAT       0.4481
  18952 WAT        20.9090   33.5940   10.8410 O      18952 WAT       0.5026
  18953 WAT        20.9090   33.5940   11.0910 O      18953 WAT       0.3677
  18954 WAT        20.9090   33.5940   11.3410 O      18954 WAT       0.1781
  18955 WAT        20.9090   33.5940   11.5910 O      18955 WAT       0.0573
  18956 WAT        20.9090   33.8440   10.0910 O      18956 WAT       0.1203
  18957 WAT        20.9090   33.8440   10.3410 O      18957 WAT       0.3359
  18958 WAT        20.9090   33.8440   10.5910 O      18958 WAT       0.6028
  18959 WAT        20.9090   33.8440   10.8410 O      18959 WAT       0.7043
  18960 WAT        20.9090   33.8440   11.0910 O      18960 WAT       0.5432
  18961 WAT        20.9090   33.8440   11.3410 O      18961 WAT       0.2824
  18962 WAT        20.9090   33.8440   11.5910 O      18962 WAT       0.1014
  18963 WAT        20.9090   34.0940   10.0910 O      18963 WAT       0.0939
  18964 WAT        20.9090   34.0940   10.3410 O      18964 WAT       0.2715
  18965 WAT        20.9090   34.0940   10.5910 O      18965 WAT       0.5074
  18966 WAT        20.9090   34.0940   10.8410 O      18966 WAT       0.6239
  18967 WAT        20.9090   34.0940   11.0910 O      18967 WAT       0.5143
  18968 WAT        20.9090   34.0940   11.3410 O      18968 WAT       0.2925
  18969 WAT        20.9090   34.0940   11.5910 O      18969 WAT       0.1182
  18970 WAT        20.9090   34.0940   28.5910 O      18970 WAT       0.0531
  18971 WAT        20.9090   34.0940   28.8410 O      18971 WAT       0.0652
  18972 WAT        20.9090   34.0940   29.0910 O      18972 WAT       0.0633
  18973 WAT        20.9090   34.0940   29.3410 O      18973 WAT       0.0476
  18974 WAT        20.9090   34.3440   10.3410 O      18974 WAT       0.1371
  18975 WAT        20.9090   34.3440   10.5910 O      18975 WAT       0.2697
  18976 WAT        20.9090   34.3440   10.8410 O      18976 WAT       0.3536
  18977 WAT        20.9090   34.3440   11.0910 O      18977 WAT       0.3173
  18978 WAT        20.9090   34.3440   11.3410 O      18978 WAT       0.2014
  18979 WAT        20.9090   34.3440   11.5910 O      18979 WAT       0.0930
  18980 WAT        20.9090   34.3440   28.3410 O      18980 WAT       0.0726
  18981 WAT        20.9090   34.3440   28.5910 O      18981 WAT       0.1125
  18982 WAT        20.9090   34.3440   28.8410 O      18982 WAT       0.1390
  18983 WAT        20.9090   34.3440   29.0910 O      18983 WAT       0.1362
  18984 WAT        20.9090   34.3440   29.3410 O      18984 WAT       0.1035
  18985 WAT        20.9090   34.3440   29.5910 O      18985 WAT       0.0585
  18986 WAT        20.9090   34.5940   10.5910 O      18986 WAT       0.0913
  18987 WAT        20.9090   34.5940   10.8410 O      18987 WAT       0.1301
  18988 WAT        20.9090   34.5940   11.0910 O      18988 WAT       0.1294
  18989 WAT        20.9090   34.5940   11.3410 O      18989 WAT       0.0931
  18990 WAT        20.9090   34.5940   11.5910 O      18990 WAT       0.0497
  18991 WAT        20.9090   34.5940   28.0910 O      18991 WAT       0.0537
  18992 WAT        20.9090   34.5940   28.3410 O      18992 WAT       0.1062
  18993 WAT        20.9090   34.5940   28.5910 O      18993 WAT       0.1658
  18994 WAT        20.9090   34.5940   28.8410 O      18994 WAT       0.2060
  18995 WAT        20.9090   34.5940   29.0910 O      18995 WAT       0.2026
  18996 WAT        20.9090   34.5940   29.3410 O      18996 WAT       0.1546
  18997 WAT        20.9090   34.5940   29.5910 O      18997 WAT       0.0878
  18998 WAT        20.9090   34.8440   28.0910 O      18998 WAT       0.0537
  18999 WAT        20.9090   34.8440   28.3410 O      18999 WAT       0.1081
  19000 WAT        20.9090   34.8440   28.5910 O      19000 WAT       0.1704
  19001 WAT        20.9090   34.8440   28.8410 O      19001 WAT       0.2126
  19002 WAT        20.9090   34.8440   29.0910 O      19002 WAT       0.2090
  19003 WAT        20.9090   34.8440   29.3410 O      19003 WAT       0.1593
  19004 WAT        20.9090   34.8440   29.5910 O      19004 WAT       0.0903
  19005 WAT        20.9090   35.0940   28.3410 O      19005 WAT       0.0757
  19006 WAT        20.9090   35.0940   28.5910 O      19006 WAT       0.1211
  19007 WAT        20.9090   35.0940   28.8410 O      19007 WAT       0.1518
  19008 WAT        20.9090   35.0940   29.0910 O      19008 WAT       0.1490
  19009 WAT        20.9090   35.0940   29.3410 O      19009 WAT       0.1131
  19010 WAT        20.9090   35.0940   29.5910 O      19010 WAT       0.0638
  19011 WAT        20.9090   35.3440   28.5910 O      19011 WAT       0.0584
  19012 WAT        20.9090   35.3440   28.8410 O      19012 WAT       0.0738
  19013 WAT        20.9090   35.3440   29.0910 O      19013 WAT       0.0725
  19014 WAT        20.9090   35.3440   29.3410 O      19014 WAT       0.0547
  19015 WAT        21.1590    8.3440   14.8410 O      19015 WAT       0.0652
  19016 WAT        21.1590    8.3440   15.0910 O      19016 WAT       0.0744
  19017 WAT        21.1590    8.3440   15.3410 O      19017 WAT       0.0652
  19018 WAT        21.1590    8.3440   15.5910 O      19018 WAT       0.0451
  19019 WAT        21.1590    8.3440   19.0910 O      19019 WAT       0.0680
  19020 WAT        21.1590    8.3440   19.3410 O      19020 WAT       0.1234
  19021 WAT        21.1590    8.3440   19.5910 O      19021 WAT       0.1679
  19022 WAT        21.1590    8.3440   19.8410 O      19022 WAT       0.1747
  19023 WAT        21.1590    8.3440   20.0910 O      19023 WAT       0.1416
  19024 WAT        21.1590    8.3440   20.3410 O      19024 WAT       0.0908
  19025 WAT        21.1590    8.3440   20.5910 O      19025 WAT       0.0471
  19026 WAT        21.1590    8.3440   22.5910 O      19026 WAT       0.0552
  19027 WAT        21.1590    8.3440   22.8410 O      19027 WAT       0.0814
  19028 WAT        21.1590    8.3440   23.0910 O      19028 WAT       0.1128
  19029 WAT        21.1590    8.3440   23.3410 O      19029 WAT       0.1465
  19030 WAT        21.1590    8.3440   23.5910 O      19030 WAT       0.1707
  19031 WAT        21.1590    8.3440   23.8410 O      19031 WAT       0.1721
  19032 WAT        21.1590    8.3440   24.0910 O      19032 WAT       0.1494
  19033 WAT        21.1590    8.3440   24.3410 O      19033 WAT       0.1141
  19034 WAT        21.1590    8.3440   24.5910 O      19034 WAT       0.0773
  19035 WAT        21.1590    8.3440   24.8410 O      19035 WAT       0.0455
  19036 WAT        21.1590    8.3440   26.5910 O      19036 WAT       0.0455
  19037 WAT        21.1590    8.5940   14.5910 O      19037 WAT       0.0495
  19038 WAT        21.1590    8.5940   14.8410 O      19038 WAT       0.0797
  19039 WAT        21.1590    8.5940   15.0910 O      19039 WAT       0.0987
  19040 WAT        21.1590    8.5940   15.3410 O      19040 WAT       0.0946
  19041 WAT        21.1590    8.5940   15.5910 O      19041 WAT       0.0727
  19042 WAT        21.1590    8.5940   15.8410 O      19042 WAT       0.0476
  19043 WAT        21.1590    8.5940   19.0910 O      19043 WAT       0.0973
  19044 WAT        21.1590    8.5940   19.3410 O      19044 WAT       0.1789
  19045 WAT        21.1590    8.5940   19.5910 O      19045 WAT       0.2485
  19046 WAT        21.1590    8.5940   19.8410 O      19046 WAT       0.2649
  19047 WAT        21.1590    8.5940   20.0910 O      19047 WAT       0.2211
  19048 WAT        21.1590    8.5940   20.3410 O      19048 WAT       0.1471
  19049 WAT        21.1590    8.5940   20.5910 O      19049 WAT       0.0797
  19050 WAT        21.1590    8.5940   22.5910 O      19050 WAT       0.0553
  19051 WAT        21.1590    8.5940   22.8410 O      19051 WAT       0.0755
  19052 WAT        21.1590    8.5940   23.0910 O      19052 WAT       0.0980
  19053 WAT        21.1590    8.5940   23.3410 O      19053 WAT       0.1212
  19054 WAT        21.1590    8.5940   23.5910 O      19054 WAT       0.1369
  19055 WAT        21.1590    8.5940   23.8410 O      19055 WAT       0.1359
  19056 WAT        21.1590    8.5940   24.0910 O      19056 WAT       0.1179
  19057 WAT        21.1590    8.5940   24.3410 O      19057 WAT       0.0906
  19058 WAT        21.1590    8.5940   24.5910 O      19058 WAT       0.0622
  19059 WAT        21.1590    8.5940   26.3410 O      19059 WAT       0.0523
  19060 WAT        21.1590    8.5940   26.5910 O      19060 WAT       0.0499
  19061 WAT        21.1590    8.8440   14.8410 O      19061 WAT       0.0667
  19062 WAT        21.1590    8.8440   15.0910 O      19062 WAT       0.0879
  19063 WAT        21.1590    8.8440   15.3410 O      19063 WAT       0.0912
  19064 WAT        21.1590    8.8440   15.5910 O      19064 WAT       0.0775
  19065 WAT        21.1590    8.8440   15.8410 O      19065 WAT       0.0575
  19066 WAT        21.1590    8.8440   19.0910 O      19066 WAT       0.0967
  19067 WAT        21.1590    8.8440   19.3410 O      19067 WAT       0.1834
  19068 WAT        21.1590    8.8440   19.5910 O      19068 WAT       0.2641
  19069 WAT        21.1590    8.8440   19.8410 O      19069 WAT       0.2927
  19070 WAT        21.1590    8.8440   20.0910 O      19070 WAT       0.2542
  19071 WAT        21.1590    8.8440   20.3410 O      19071 WAT       0.1766
  19072 WAT        21.1590    8.8440   20.5910 O      19072 WAT       0.1003
  19073 WAT        21.1590    8.8440   20.8410 O      19073 WAT       0.0489
  19074 WAT        21.1590    8.8440   22.8410 O      19074 WAT       0.0516
  19075 WAT        21.1590    8.8440   23.0910 O      19075 WAT       0.0627
  19076 WAT        21.1590    8.8440   23.3410 O      19076 WAT       0.0736
  19077 WAT        21.1590    8.8440   23.5910 O      19077 WAT       0.0799
  19078 WAT        21.1590    8.8440   23.8410 O      19078 WAT       0.0774
  19079 WAT        21.1590    8.8440   24.0910 O      19079 WAT       0.0664
  19080 WAT        21.1590    8.8440   24.3410 O      19080 WAT       0.0510
  19081 WAT        21.1590    8.8440   26.3410 O      19081 WAT       0.0471
  19082 WAT        21.1590    9.0940   15.0910 O      19082 WAT       0.0520
  19083 WAT        21.1590    9.0940   15.3410 O      19083 WAT       0.0581
  19084 WAT        21.1590    9.0940   15.5910 O      19084 WAT       0.0544
  19085 WAT        21.1590    9.0940   15.8410 O      19085 WAT       0.0457
  19086 WAT        21.1590    9.0940   19.0910 O      19086 WAT       0.0669
  19087 WAT        21.1590    9.0940   19.3410 O      19087 WAT       0.1333
  19088 WAT        21.1590    9.0940   19.5910 O      19088 WAT       0.2018
  19089 WAT        21.1590    9.0940   19.8410 O      19089 WAT       0.2349
  19090 WAT        21.1590    9.0940   20.0910 O      19090 WAT       0.2138
  19091 WAT        21.1590    9.0940   20.3410 O      19091 WAT       0.1554
  19092 WAT        21.1590    9.0940   20.5910 O      19092 WAT       0.0926
  19093 WAT        21.1590    9.0940   20.8410 O      19093 WAT       0.0478
  19094 WAT        21.1590    9.3440   19.3410 O      19094 WAT       0.0682
  19095 WAT        21.1590    9.3440   19.5910 O      19095 WAT       0.1100
  19096 WAT        21.1590    9.3440   19.8410 O      19096 WAT       0.1355
  19097 WAT        21.1590    9.3440   20.0910 O      19097 WAT       0.1297
  19098 WAT        21.1590    9.3440   20.3410 O      19098 WAT       0.0989
  19099 WAT        21.1590    9.3440   20.5910 O      19099 WAT       0.0620
  19100 WAT        21.1590    9.5940   19.8410 O      19100 WAT       0.0549
  19101 WAT        21.1590    9.5940   20.0910 O      19101 WAT       0.0554
  19102 WAT        21.1590   10.8440   12.3410 O      19102 WAT       0.0530
  19103 WAT        21.1590   10.8440   12.5910 O      19103 WAT       0.0600
  19104 WAT        21.1590   10.8440   12.8410 O      19104 WAT       0.0578
  19105 WAT        21.1590   10.8440   13.0910 O      19105 WAT       0.0490
  19106 WAT        21.1590   11.0940   12.0910 O      19106 WAT       0.0465
  19107 WAT        21.1590   11.0940   12.3410 O      19107 WAT       0.0601
  19108 WAT        21.1590   11.0940   12.5910 O      19108 WAT       0.0648
  19109 WAT        21.1590   11.0940   12.8410 O      19109 WAT       0.0593
  19110 WAT        21.1590   11.0940   13.0910 O      19110 WAT       0.0481
  19111 WAT        21.1590   11.3440   12.3410 O      19111 WAT       0.0490
  19112 WAT        21.1590   11.3440   12.5910 O      19112 WAT       0.0510
  19113 WAT        21.1590   11.3440   12.8410 O      19113 WAT       0.0453
  19114 WAT        21.1590   13.8440    9.3410 O      19114 WAT       0.0462
  19115 WAT        21.1590   13.8440    9.5910 O      19115 WAT       0.0455
  19116 WAT        21.1590   14.0940    9.0910 O      19116 WAT       0.0477
  19117 WAT        21.1590   14.0940    9.3410 O      19117 WAT       0.0537
  19118 WAT        21.1590   14.0940    9.5910 O      19118 WAT       0.0486
  19119 WAT        21.1590   14.3440    9.0910 O      19119 WAT       0.0527
  19120 WAT        21.1590   14.3440    9.3410 O      19120 WAT       0.0566
  19121 WAT        21.1590   14.3440    9.5910 O      19121 WAT       0.0471
  19122 WAT        21.1590   14.5940    9.0910 O      19122 WAT       0.0518
  19123 WAT        21.1590   14.5940    9.3410 O      19123 WAT       0.0527
  19124 WAT        21.1590   16.3440    4.5910 O      19124 WAT       0.0479
  19125 WAT        21.1590   16.3440    4.8410 O      19125 WAT       0.0472
  19126 WAT        21.1590   16.3440    7.0910 O      19126 WAT       0.0485
  19127 WAT        21.1590   16.3440    7.3410 O      19127 WAT       0.0561
  19128 WAT        21.1590   16.3440    7.5910 O      19128 WAT       0.0572
  19129 WAT        21.1590   16.3440    7.8410 O      19129 WAT       0.0513
  19130 WAT        21.1590   16.5940    4.3410 O      19130 WAT       0.0463
  19131 WAT        21.1590   16.5940    4.5910 O      19131 WAT       0.0491
  19132 WAT        21.1590   16.5940    4.8410 O      19132 WAT       0.0481
  19133 WAT        21.1590   16.5940    6.8410 O      19133 WAT       0.0499
  19134 WAT        21.1590   16.5940    7.0910 O      19134 WAT       0.0595
  19135 WAT        21.1590   16.5940    7.3410 O      19135 WAT       0.0639
  19136 WAT        21.1590   16.5940    7.5910 O      19136 WAT       0.0601
  19137 WAT        21.1590   16.5940    7.8410 O      19137 WAT       0.0497
  19138 WAT        21.1590   16.8440    6.5910 O      19138 WAT       0.0489
  19139 WAT        21.1590   16.8440    6.8410 O      19139 WAT       0.0564
  19140 WAT        21.1590   16.8440    7.0910 O      19140 WAT       0.0615
  19141 WAT        21.1590   16.8440    7.3410 O      19141 WAT       0.0604
  19142 WAT        21.1590   16.8440    7.5910 O      19142 WAT       0.0521
  19143 WAT        21.1590   17.0940    6.3410 O      19143 WAT       0.0463
  19144 WAT        21.1590   17.0940    6.5910 O      19144 WAT       0.0522
  19145 WAT        21.1590   17.0940    6.8410 O      19145 WAT       0.0551
  19146 WAT        21.1590   17.0940    7.0910 O      19146 WAT       0.0540
  19147 WAT        21.1590   17.0940    7.3410 O      19147 WAT       0.0478
  19148 WAT        21.1590   17.3440    6.5910 O      19148 WAT       0.0495
  19149 WAT        21.1590   17.3440    6.8410 O      19149 WAT       0.0486
  19150 WAT        21.1590   27.3440   18.0910 O      19150 WAT       0.0469
  19151 WAT        21.1590   27.3440   18.3410 O      19151 WAT       0.0752
  19152 WAT        21.1590   27.3440   18.5910 O      19152 WAT       0.0814
  19153 WAT        21.1590   27.3440   18.8410 O      19153 WAT       0.0608
  19154 WAT        21.1590   27.5940   17.8410 O      19154 WAT       0.0675
  19155 WAT        21.1590   27.5940   18.0910 O      19155 WAT       0.1492
  19156 WAT        21.1590   27.5940   18.3410 O      19156 WAT       0.2213
  19157 WAT        21.1590   27.5940   18.5910 O      19157 WAT       0.2237
  19158 WAT        21.1590   27.5940   18.8410 O      19158 WAT       0.1566
  19159 WAT        21.1590   27.5940   19.0910 O      19159 WAT       0.0779
  19160 WAT        21.1590   27.8440   17.5910 O      19160 WAT       0.0476
  19161 WAT        21.1590   27.8440   17.8410 O      19161 WAT       0.1504
  19162 WAT        21.1590   27.8440   18.0910 O      19162 WAT       0.3126
  19163 WAT        21.1590   27.8440   18.3410 O      19163 WAT       0.4397
  19164 WAT        21.1590   27.8440   18.5910 O      19164 WAT       0.4222
  19165 WAT        21.1590   27.8440   18.8410 O      19165 WAT       0.2809
  19166 WAT        21.1590   27.8440   19.0910 O      19166 WAT       0.1334
  19167 WAT        21.1590   27.8440   19.3410 O      19167 WAT       0.0481
  19168 WAT        21.1590   27.8440   21.0910 O      19168 WAT       0.0517
  19169 WAT        21.1590   27.8440   21.3410 O      19169 WAT       0.0460
  19170 WAT        21.1590   28.0940   17.5910 O      19170 WAT       0.0739
  19171 WAT        21.1590   28.0940   17.8410 O      19171 WAT       0.2190
  19172 WAT        21.1590   28.0940   18.0910 O      19172 WAT       0.4338
  19173 WAT        21.1590   28.0940   18.3410 O      19173 WAT       0.5832
  19174 WAT        21.1590   28.0940   18.5910 O      19174 WAT       0.5370
  19175 WAT        21.1590   28.0940   18.8410 O      19175 WAT       0.3441
  19176 WAT        21.1590   28.0940   19.0910 O      19176 WAT       0.1583
  19177 WAT        21.1590   28.0940   19.3410 O      19177 WAT       0.0557
  19178 WAT        21.1590   28.0940   20.5910 O      19178 WAT       0.0508
  19179 WAT        21.1590   28.0940   20.8410 O      19179 WAT       0.0828
  19180 WAT        21.1590   28.0940   21.0910 O      19180 WAT       0.0941
  19181 WAT        21.1590   28.0940   21.3410 O      19181 WAT       0.0752
  19182 WAT        21.1590   28.3440   17.5910 O      19182 WAT       0.0736
  19183 WAT        21.1590   28.3440   17.8410 O      19183 WAT       0.2082
  19184 WAT        21.1590   28.3440   18.0910 O      19184 WAT       0.3948
  19185 WAT        21.1590   28.3440   18.3410 O      19185 WAT       0.5099
  19186 WAT        21.1590   28.3440   18.5910 O      19186 WAT       0.4532
  19187 WAT        21.1590   28.3440   18.8410 O      19187 WAT       0.2822
  19188 WAT        21.1590   28.3440   19.0910 O      19188 WAT       0.1273
  19189 WAT        21.1590   28.3440   20.3410 O      19189 WAT       0.0504
  19190 WAT        21.1590   28.3440   20.5910 O      19190 WAT       0.1110
  19191 WAT        21.1590   28.3440   20.8410 O      19191 WAT       0.1729
  19192 WAT        21.1590   28.3440   21.0910 O      19192 WAT       0.1864
  19193 WAT        21.1590   28.3440   21.3410 O      19193 WAT       0.1388
  19194 WAT        21.1590   28.3440   21.5910 O      19194 WAT       0.0712
  19195 WAT        21.1590   28.5940   17.5910 O      19195 WAT       0.0468
  19196 WAT        21.1590   28.5940   17.8410 O      19196 WAT       0.1282
  19197 WAT        21.1590   28.5940   18.0910 O      19197 WAT       0.2339
  19198 WAT        21.1590   28.5940   18.3410 O      19198 WAT       0.2912
  19199 WAT        21.1590   28.5940   18.5910 O      19199 WAT       0.2509
  19200 WAT        21.1590   28.5940   18.8410 O      19200 WAT       0.1526
  19201 WAT        21.1590   28.5940   19.0910 O      19201 WAT       0.0675
  19202 WAT        21.1590   28.5940   20.3410 O      19202 WAT       0.0866
  19203 WAT        21.1590   28.5940   20.5910 O      19203 WAT       0.1867
  19204 WAT        21.1590   28.5940   20.8410 O      19204 WAT       0.2849
  19205 WAT        21.1590   28.5940   21.0910 O      19205 WAT       0.3010
  19206 WAT        21.1590   28.5940   21.3410 O      19206 WAT       0.2187
  19207 WAT        21.1590   28.5940   21.5910 O      19207 WAT       0.1091
  19208 WAT        21.1590   28.8440   17.8410 O      19208 WAT       0.0501
  19209 WAT        21.1590   28.8440   18.0910 O      19209 WAT       0.0891
  19210 WAT        21.1590   28.8440   18.3410 O      19210 WAT       0.1075
  19211 WAT        21.1590   28.8440   18.5910 O      19211 WAT       0.0898
  19212 WAT        21.1590   28.8440   18.8410 O      19212 WAT       0.0527
  19213 WAT        21.1590   28.8440   20.3410 O      19213 WAT       0.1003
  19214 WAT        21.1590   28.8440   20.5910 O      19214 WAT       0.2147
  19215 WAT        21.1590   28.8440   20.8410 O      19215 WAT       0.3259
  19216 WAT        21.1590   28.8440   21.0910 O      19216 WAT       0.3438
  19217 WAT        21.1590   28.8440   21.3410 O      19217 WAT       0.2503
  19218 WAT        21.1590   28.8440   21.5910 O      19218 WAT       0.1257
  19219 WAT        21.1590   29.0940   20.3410 O      19219 WAT       0.0755
  19220 WAT        21.1590   29.0940   20.5910 O      19220 WAT       0.1621
  19221 WAT        21.1590   29.0940   20.8410 O      19221 WAT       0.2473
  19222 WAT        21.1590   29.0940   21.0910 O      19222 WAT       0.2636
  19223 WAT        21.1590   29.0940   21.3410 O      19223 WAT       0.1957
  19224 WAT        21.1590   29.0940   21.5910 O      19224 WAT       0.1011
  19225 WAT        21.1590   29.3440   20.5910 O      19225 WAT       0.0786
  19226 WAT        21.1590   29.3440   20.8410 O      19226 WAT       0.1220
  19227 WAT        21.1590   29.3440   21.0910 O      19227 WAT       0.1332
  19228 WAT        21.1590   29.3440   21.3410 O      19228 WAT       0.1022
  19229 WAT        21.1590   29.3440   21.5910 O      19229 WAT       0.0551
  19230 WAT        21.1590   33.0940   10.5910 O      19230 WAT       0.0508
  19231 WAT        21.1590   33.0940   10.8410 O      19231 WAT       0.0550
  19232 WAT        21.1590   33.3440   10.3410 O      19232 WAT       0.1055
  19233 WAT        21.1590   33.3440   10.5910 O      19233 WAT       0.1823
  19234 WAT        21.1590   33.3440   10.8410 O      19234 WAT       0.2023
  19235 WAT        21.1590   33.3440   11.0910 O      19235 WAT       0.1458
  19236 WAT        21.1590   33.3440   11.3410 O      19236 WAT       0.0685
  19237 WAT        21.1590   33.5940   10.0910 O      19237 WAT       0.0809
  19238 WAT        21.1590   33.5940   10.3410 O      19238 WAT       0.2243
  19239 WAT        21.1590   33.5940   10.5910 O      19239 WAT       0.3972
  19240 WAT        21.1590   33.5940   10.8410 O      19240 WAT       0.4565
  19241 WAT        21.1590   33.5940   11.0910 O      19241 WAT       0.3447
  19242 WAT        21.1590   33.5940   11.3410 O      19242 WAT       0.1741
  19243 WAT        21.1590   33.5940   11.5910 O      19243 WAT       0.0593
  19244 WAT        21.1590   33.8440   10.0910 O      19244 WAT       0.1036
  19245 WAT        21.1590   33.8440   10.3410 O      19245 WAT       0.2942
  19246 WAT        21.1590   33.8440   10.5910 O      19246 WAT       0.5391
  19247 WAT        21.1590   33.8440   10.8410 O      19247 WAT       0.6476
  19248 WAT        21.1590   33.8440   11.0910 O      19248 WAT       0.5182
  19249 WAT        21.1590   33.8440   11.3410 O      19249 WAT       0.2831
  19250 WAT        21.1590   33.8440   11.5910 O      19250 WAT       0.1086
  19251 WAT        21.1590   34.0940   10.0910 O      19251 WAT       0.0815
  19252 WAT        21.1590   34.0940   10.3410 O      19252 WAT       0.2403
  19253 WAT        21.1590   34.0940   10.5910 O      19253 WAT       0.4599
  19254 WAT        21.1590   34.0940   10.8410 O      19254 WAT       0.5842
  19255 WAT        21.1590   34.0940   11.0910 O      19255 WAT       0.5033
  19256 WAT        21.1590   34.0940   11.3410 O      19256 WAT       0.3035
  19257 WAT        21.1590   34.0940   11.5910 O      19257 WAT       0.1324
  19258 WAT        21.1590   34.0940   28.3410 O      19258 WAT       0.0683
  19259 WAT        21.1590   34.0940   28.5910 O      19259 WAT       0.0907
  19260 WAT        21.1590   34.0940   28.8410 O      19260 WAT       0.0952
  19261 WAT        21.1590   34.0940   29.0910 O      19261 WAT       0.0791
  19262 WAT        21.1590   34.0940   29.3410 O      19262 WAT       0.0514
  19263 WAT        21.1590   34.3440   10.3410 O      19263 WAT       0.1231
  19264 WAT        21.1590   34.3440   10.5910 O      19264 WAT       0.2493
  19265 WAT        21.1590   34.3440   10.8410 O      19265 WAT       0.3400
  19266 WAT        21.1590   34.3440   11.0910 O      19266 WAT       0.3216
  19267 WAT        21.1590   34.3440   11.3410 O      19267 WAT       0.2186
  19268 WAT        21.1590   34.3440   11.5910 O      19268 WAT       0.1098
  19269 WAT        21.1590   34.3440   28.0910 O      19269 WAT       0.0817
  19270 WAT        21.1590   34.3440   28.3410 O      19270 WAT       0.1400
  19271 WAT        21.1590   34.3440   28.5910 O      19271 WAT       0.1874
  19272 WAT        21.1590   34.3440   28.8410 O      19272 WAT       0.1992
  19273 WAT        21.1590   34.3440   29.0910 O      19273 WAT       0.1677
  19274 WAT        21.1590   34.3440   29.3410 O      19274 WAT       0.1105
  19275 WAT        21.1590   34.3440   29.5910 O      19275 WAT       0.0552
  19276 WAT        21.1590   34.5940   10.5910 O      19276 WAT       0.0867
  19277 WAT        21.1590   34.5940   10.8410 O      19277 WAT       0.1297
  19278 WAT        21.1590   34.5940   11.0910 O      19278 WAT       0.1375
  19279 WAT        21.1590   34.5940   11.3410 O      19279 WAT       0.1070
  19280 WAT        21.1590   34.5940   11.5910 O      19280 WAT       0.0625
  19281 WAT        21.1590   34.5940   27.8410 O      19281 WAT       0.0507
  19282 WAT        21.1590   34.5940   28.0910 O      19282 WAT       0.1157
  19283 WAT        21.1590   34.5940   28.3410 O      19283 WAT       0.2005
  19284 WAT        21.1590   34.5940   28.5910 O      19284 WAT       0.2716
  19285 WAT        21.1590   34.5940   28.8410 O      19285 WAT       0.2912
  19286 WAT        21.1590   34.5940   29.0910 O      19286 WAT       0.2469
  19287 WAT        21.1590   34.5940   29.3410 O      19287 WAT       0.1636
  19288 WAT        21.1590   34.5940   29.5910 O      19288 WAT       0.0822
  19289 WAT        21.1590   34.8440   27.8410 O      19289 WAT       0.0486
  19290 WAT        21.1590   34.8440   28.0910 O      19290 WAT       0.1132
  19291 WAT        21.1590   34.8440   28.3410 O      19291 WAT       0.2001
  19292 WAT        21.1590   34.8440   28.5910 O      19292 WAT       0.2752
  19293 WAT        21.1590   34.8440   28.8410 O      19293 WAT       0.2978
  19294 WAT        21.1590   34.8440   29.0910 O      19294 WAT       0.2534
  19295 WAT        21.1590   34.8440   29.3410 O      19295 WAT       0.1681
  19296 WAT        21.1590   34.8440   29.5910 O      19296 WAT       0.0847
  19297 WAT        21.1590   35.0940   28.0910 O      19297 WAT       0.0757
  19298 WAT        21.1590   35.0940   28.3410 O      19298 WAT       0.1377
  19299 WAT        21.1590   35.0940   28.5910 O      19299 WAT       0.1933
  19300 WAT        21.1590   35.0940   28.8410 O      19300 WAT       0.2113
  19301 WAT        21.1590   35.0940   29.0910 O      19301 WAT       0.1805
  19302 WAT        21.1590   35.0940   29.3410 O      19302 WAT       0.1198
  19303 WAT        21.1590   35.0940   29.5910 O      19303 WAT       0.0602
  19304 WAT        21.1590   35.3440   28.3410 O      19304 WAT       0.0643
  19305 WAT        21.1590   35.3440   28.5910 O      19305 WAT       0.0926
  19306 WAT        21.1590   35.3440   28.8410 O      19306 WAT       0.1027
  19307 WAT        21.1590   35.3440   29.0910 O      19307 WAT       0.0882
  19308 WAT        21.1590   35.3440   29.3410 O      19308 WAT       0.0585
  19309 WAT        21.4090    8.3440   15.0910 O      19309 WAT       0.0492
  19310 WAT        21.4090    8.3440   15.3410 O      19310 WAT       0.0497
  19311 WAT        21.4090    8.3440   18.8410 O      19311 WAT       0.0468
  19312 WAT        21.4090    8.3440   19.0910 O      19312 WAT       0.1083
  19313 WAT        21.4090    8.3440   19.3410 O      19313 WAT       0.1917
  19314 WAT        21.4090    8.3440   19.5910 O      19314 WAT       0.2586
  19315 WAT        21.4090    8.3440   19.8410 O      19315 WAT       0.2693
  19316 WAT        21.4090    8.3440   20.0910 O      19316 WAT       0.2195
  19317 WAT        21.4090    8.3440   20.3410 O      19317 WAT       0.1422
  19318 WAT        21.4090    8.3440   20.5910 O      19318 WAT       0.0745
  19319 WAT        21.4090    8.3440   22.3410 O      19319 WAT       0.0556
  19320 WAT        21.4090    8.3440   22.5910 O      19320 WAT       0.0873
  19321 WAT        21.4090    8.3440   22.8410 O      19321 WAT       0.1217
  19322 WAT        21.4090    8.3440   23.0910 O      19322 WAT       0.1553
  19323 WAT        21.4090    8.3440   23.3410 O      19323 WAT       0.1821
  19324 WAT        21.4090    8.3440   23.5910 O      19324 WAT       0.1894
  19325 WAT        21.4090    8.3440   23.8410 O      19325 WAT       0.1685
  19326 WAT        21.4090    8.3440   24.0910 O      19326 WAT       0.1268
  19327 WAT        21.4090    8.3440   24.3410 O      19327 WAT       0.0820
  19328 WAT        21.4090    8.3440   24.5910 O      19328 WAT       0.0466
  19329 WAT        21.4090    8.3440   26.3410 O      19329 WAT       0.0499
  19330 WAT        21.4090    8.3440   26.5910 O      19330 WAT       0.0451
  19331 WAT        21.4090    8.5940   14.8410 O      19331 WAT       0.0486
  19332 WAT        21.4090    8.5940   15.0910 O      19332 WAT       0.0678
  19333 WAT        21.4090    8.5940   15.3410 O      19333 WAT       0.0768
  19334 WAT        21.4090    8.5940   15.5910 O      19334 WAT       0.0727
  19335 WAT        21.4090    8.5940   15.8410 O      19335 WAT       0.0600
  19336 WAT        21.4090    8.5940   16.0910 O      19336 WAT       0.0456
  19337 WAT        21.4090    8.5940   18.8410 O      19337 WAT       0.0676
  19338 WAT        21.4090    8.5940   19.0910 O      19338 WAT       0.1569
  19339 WAT        21.4090    8.5940   19.3410 O      19339 WAT       0.2820
  19340 WAT        21.4090    8.5940   19.5910 O      19340 WAT       0.3892
  19341 WAT        21.4090    8.5940   19.8410 O      19341 WAT       0.4159
  19342 WAT        21.4090    8.5940   20.0910 O      19342 WAT       0.3489
  19343 WAT        21.4090    8.5940   20.3410 O      19343 WAT       0.2336
  19344 WAT        21.4090    8.5940   20.5910 O      19344 WAT       0.1272
  19345 WAT        21.4090    8.5940   20.8410 O      19345 WAT       0.0585
  19346 WAT        21.4090    8.5940   22.3410 O      19346 WAT       0.0621
  19347 WAT        21.4090    8.5940   22.5910 O      19347 WAT       0.0903
  19348 WAT        21.4090    8.5940   22.8410 O      19348 WAT       0.1183
  19349 WAT        21.4090    8.5940   23.0910 O      19349 WAT       0.1436
  19350 WAT        21.4090    8.5940   23.3410 O      19350 WAT       0.1619
  19351 WAT        21.4090    8.5940   23.5910 O      19351 WAT       0.1634
  19352 WAT        21.4090    8.5940   23.8410 O      19352 WAT       0.1423
  19353 WAT        21.4090    8.5940   24.0910 O      19353 WAT       0.1058
  19354 WAT        21.4090    8.5940   24.3410 O      19354 WAT       0.0681
  19355 WAT        21.4090    8.5940   26.0910 O      19355 WAT       0.0495
  19356 WAT        21.4090    8.5940   26.3410 O      19356 WAT       0.0565
  19357 WAT        21.4090    8.5940   26.5910 O      19357 WAT       0.0488
  19358 WAT        21.4090    8.8440   15.0910 O      19358 WAT       0.0650
  19359 WAT        21.4090    8.8440   15.3410 O      19359 WAT       0.0811
  19360 WAT        21.4090    8.8440   15.5910 O      19360 WAT       0.0859
  19361 WAT        21.4090    8.8440   15.8410 O      19361 WAT       0.0802
  19362 WAT        21.4090    8.8440   16.0910 O      19362 WAT       0.0698
  19363 WAT        21.4090    8.8440   16.3410 O      19363 WAT       0.0595
  19364 WAT        21.4090    8.8440   16.5910 O      19364 WAT       0.0507
  19365 WAT        21.4090    8.8440   18.8410 O      19365 WAT       0.0674
  19366 WAT        21.4090    8.8440   19.0910 O      19366 WAT       0.1599
  19367 WAT        21.4090    8.8440   19.3410 O      19367 WAT       0.2965
  19368 WAT        21.4090    8.8440   19.5910 O      19368 WAT       0.4247
  19369 WAT        21.4090    8.8440   19.8410 O      19369 WAT       0.4716
  19370 WAT        21.4090    8.8440   20.0910 O      19370 WAT       0.4112
  19371 WAT        21.4090    8.8440   20.3410 O      19371 WAT       0.2862
  19372 WAT        21.4090    8.8440   20.5910 O      19372 WAT       0.1624
  19373 WAT        21.4090    8.8440   20.8410 O      19373 WAT       0.0783
  19374 WAT        21.4090    8.8440   22.3410 O      19374 WAT       0.0523
  19375 WAT        21.4090    8.8440   22.5910 O      19375 WAT       0.0690
  19376 WAT        21.4090    8.8440   22.8410 O      19376 WAT       0.0842
  19377 WAT        21.4090    8.8440   23.0910 O      19377 WAT       0.0968
  19378 WAT        21.4090    8.8440   23.3410 O      19378 WAT       0.1044
  19379 WAT        21.4090    8.8440   23.5910 O      19379 WAT       0.1016
  19380 WAT        21.4090    8.8440   23.8410 O      19380 WAT       0.0859
  19381 WAT        21.4090    8.8440   24.0910 O      19381 WAT       0.0626
  19382 WAT        21.4090    8.8440   26.3410 O      19382 WAT       0.0487
  19383 WAT        21.4090    9.0940   15.3410 O      19383 WAT       0.0577
  19384 WAT        21.4090    9.0940   15.5910 O      19384 WAT       0.0678
  19385 WAT        21.4090    9.0940   15.8410 O      19385 WAT       0.0714
  19386 WAT        21.4090    9.0940   16.0910 O      19386 WAT       0.0708
  19387 WAT        21.4090    9.0940   16.3410 O      19387 WAT       0.0691
  19388 WAT        21.4090    9.0940   16.5910 O      19388 WAT       0.0663
  19389 WAT        21.4090    9.0940   16.8410 O      19389 WAT       0.0588
  19390 WAT        21.4090    9.0940   18.8410 O      19390 WAT       0.0465
  19391 WAT        21.4090    9.0940   19.0910 O      19391 WAT       0.1148
  19392 WAT        21.4090    9.0940   19.3410 O      19392 WAT       0.2231
  19393 WAT        21.4090    9.0940   19.5910 O      19393 WAT       0.3356
  19394 WAT        21.4090    9.0940   19.8410 O      19394 WAT       0.3907
  19395 WAT        21.4090    9.0940   20.0910 O      19395 WAT       0.3560
  19396 WAT        21.4090    9.0940   20.3410 O      19396 WAT       0.2585
  19397 WAT        21.4090    9.0940   20.5910 O      19397 WAT       0.1533
  19398 WAT        21.4090    9.0940   20.8410 O      19398 WAT       0.0776
  19399 WAT        21.4090    9.0940   23.0910 O      19399 WAT       0.0463
  19400 WAT        21.4090    9.0940   23.3410 O      19400 WAT       0.0473
  19401 WAT        21.4090    9.3440   16.0910 O      19401 WAT       0.0479
  19402 WAT        21.4090    9.3440   16.3410 O      19402 WAT       0.0533
  19403 WAT        21.4090    9.3440   16.5910 O      19403 WAT       0.0574
  19404 WAT        21.4090    9.3440   16.8410 O      19404 WAT       0.0557
  19405 WAT        21.4090    9.3440   19.0910 O      19405 WAT       0.0578
  19406 WAT        21.4090    9.3440   19.3410 O      19406 WAT       0.1196
  19407 WAT        21.4090    9.3440   19.5910 O      19407 WAT       0.1908
  19408 WAT        21.4090    9.3440   19.8410 O      19408 WAT       0.2340
  19409 WAT        21.4090    9.3440   20.0910 O      19409 WAT       0.2235
  19410 WAT        21.4090    9.3440   20.3410 O      19410 WAT       0.1697
  19411 WAT        21.4090    9.3440   20.5910 O      19411 WAT       0.1054
  19412 WAT        21.4090    9.3440   20.8410 O      19412 WAT       0.0561
  19413 WAT        21.4090    9.5940   19.5910 O      19413 WAT       0.0768
  19414 WAT        21.4090    9.5940   19.8410 O      19414 WAT       0.0998
  19415 WAT        21.4090    9.5940   20.0910 O      19415 WAT       0.1001
  19416 WAT        21.4090    9.5940   20.3410 O      19416 WAT       0.0796
  19417 WAT        21.4090    9.5940   20.5910 O      19417 WAT       0.0519
  19418 WAT        21.4090    9.8440   27.8410 O      19418 WAT       0.0478
  19419 WAT        21.4090   10.0940   27.8410 O      19419 WAT       0.0496
  19420 WAT        21.4090   10.0940   28.0910 O      19420 WAT       0.0482
  19421 WAT        21.4090   13.5940    9.5910 O      19421 WAT       0.0459
  19422 WAT        21.4090   13.8440    9.3410 O      19422 WAT       0.0497
  19423 WAT        21.4090   13.8440    9.5910 O      19423 WAT       0.0518
  19424 WAT        21.4090   14.0940    9.0910 O      19424 WAT       0.0492
  19425 WAT        21.4090   14.0940    9.3410 O      19425 WAT       0.0580
  19426 WAT        21.4090   14.0940    9.5910 O      19426 WAT       0.0542
  19427 WAT        21.4090   14.3440    9.0910 O      19427 WAT       0.0559
  19428 WAT        21.4090   14.3440    9.3410 O      19428 WAT       0.0616
  19429 WAT        21.4090   14.3440    9.5910 O      19429 WAT       0.0517
  19430 WAT        21.4090   14.5940    9.0910 O      19430 WAT       0.0569
  19431 WAT        21.4090   14.5940    9.3410 O      19431 WAT       0.0582
  19432 WAT        21.4090   14.8440    9.0910 O      19432 WAT       0.0511
  19433 WAT        21.4090   14.8440    9.3410 O      19433 WAT       0.0485
  19434 WAT        21.4090   16.3440    7.0910 O      19434 WAT       0.0463
  19435 WAT        21.4090   16.3440    7.3410 O      19435 WAT       0.0532
  19436 WAT        21.4090   16.3440    7.5910 O      19436 WAT       0.0540
  19437 WAT        21.4090   16.3440    7.8410 O      19437 WAT       0.0489
  19438 WAT        21.4090   16.5940    4.3410 O      19438 WAT       0.0455
  19439 WAT        21.4090   16.5940    4.5910 O      19439 WAT       0.0484
  19440 WAT        21.4090   16.5940    4.8410 O      19440 WAT       0.0476
  19441 WAT        21.4090   16.5940    6.8410 O      19441 WAT       0.0513
  19442 WAT        21.4090   16.5940    7.0910 O      19442 WAT       0.0618
  19443 WAT        21.4090   16.5940    7.3410 O      19443 WAT       0.0667
  19444 WAT        21.4090   16.5940    7.5910 O      19444 WAT       0.0630
  19445 WAT        21.4090   16.5940    7.8410 O      19445 WAT       0.0527
  19446 WAT        21.4090   16.8440    6.5910 O      19446 WAT       0.0522
  19447 WAT        21.4090   16.8440    6.8410 O      19447 WAT       0.0621
  19448 WAT        21.4090   16.8440    7.0910 O      19448 WAT       0.0694
  19449 WAT        21.4090   16.8440    7.3410 O      19449 WAT       0.0692
  19450 WAT        21.4090   16.8440    7.5910 O      19450 WAT       0.0602
  19451 WAT        21.4090   16.8440    7.8410 O      19451 WAT       0.0461
  19452 WAT        21.4090   17.0940    6.3410 O      19452 WAT       0.0500
  19453 WAT        21.4090   17.0940    6.5910 O      19453 WAT       0.0584
  19454 WAT        21.4090   17.0940    6.8410 O      19454 WAT       0.0642
  19455 WAT        21.4090   17.0940    7.0910 O      19455 WAT       0.0651
  19456 WAT        21.4090   17.0940    7.3410 O      19456 WAT       0.0590
  19457 WAT        21.4090   17.0940    7.5910 O      19457 WAT       0.0466
  19458 WAT        21.4090   17.3440    6.3410 O      19458 WAT       0.0492
  19459 WAT        21.4090   17.3440    6.5910 O      19459 WAT       0.0561
  19460 WAT        21.4090   17.3440    6.8410 O      19460 WAT       0.0572
  19461 WAT        21.4090   17.3440    7.0910 O      19461 WAT       0.0520
  19462 WAT        21.4090   17.5940    6.5910 O      19462 WAT       0.0477
  19463 WAT        21.4090   17.5940    6.8410 O      19463 WAT       0.0459
  19464 WAT        21.4090   26.3440   21.8410 O      19464 WAT       0.0503
  19465 WAT        21.4090   26.3440   22.0910 O      19465 WAT       0.0485
  19466 WAT        21.4090   26.5940   21.5910 O      19466 WAT       0.0496
  19467 WAT        21.4090   26.5940   21.8410 O      19467 WAT       0.0578
  19468 WAT        21.4090   26.5940   22.0910 O      19468 WAT       0.0575
  19469 WAT        21.4090   26.8440   21.8410 O      19469 WAT       0.0455
  19470 WAT        21.4090   26.8440   22.0910 O      19470 WAT       0.0460
  19471 WAT        21.4090   27.3440   18.3410 O      19471 WAT       0.0645
  19472 WAT        21.4090   27.3440   18.5910 O      19472 WAT       0.0664
  19473 WAT        21.4090   27.3440   18.8410 O      19473 WAT       0.0473
  19474 WAT        21.4090   27.5940   17.8410 O      19474 WAT       0.0634
  19475 WAT        21.4090   27.5940   18.0910 O      19475 WAT       0.1328
  19476 WAT        21.4090   27.5940   18.3410 O      19476 WAT       0.1864
  19477 WAT        21.4090   27.5940   18.5910 O      19477 WAT       0.1789
  19478 WAT        21.4090   27.5940   18.8410 O      19478 WAT       0.1187
  19479 WAT        21.4090   27.5940   19.0910 O      19479 WAT       0.0552
  19480 WAT        21.4090   27.8440   17.5910 O      19480 WAT       0.0479
  19481 WAT        21.4090   27.8440   17.8410 O      19481 WAT       0.1427
  19482 WAT        21.4090   27.8440   18.0910 O      19482 WAT       0.2804
  19483 WAT        21.4090   27.8440   18.3410 O      19483 WAT       0.3732
  19484 WAT        21.4090   27.8440   18.5910 O      19484 WAT       0.3398
  19485 WAT        21.4090   27.8440   18.8410 O      19485 WAT       0.2142
  19486 WAT        21.4090   27.8440   19.0910 O      19486 WAT       0.0951
  19487 WAT        21.4090   28.0940   17.5910 O      19487 WAT       0.0765
  19488 WAT        21.4090   28.0940   17.8410 O      19488 WAT       0.2141
  19489 WAT        21.4090   28.0940   18.0910 O      19489 WAT       0.4011
  19490 WAT        21.4090   28.0940   18.3410 O      19490 WAT       0.5107
  19491 WAT        21.4090   28.0940   18.5910 O      19491 WAT       0.4458
  19492 WAT        21.4090   28.0940   18.8410 O      19492 WAT       0.2705
  19493 WAT        21.4090   28.0940   19.0910 O      19493 WAT       0.1164
  19494 WAT        21.4090   28.3440   17.5910 O      19494 WAT       0.0796
  19495 WAT        21.4090   28.3440   17.8410 O      19495 WAT       0.2132
  19496 WAT        21.4090   28.3440   18.0910 O      19496 WAT       0.3831
  19497 WAT        21.4090   28.3440   18.3410 O      19497 WAT       0.4689
  19498 WAT        21.4090   28.3440   18.5910 O      19498 WAT       0.3952
  19499 WAT        21.4090   28.3440   18.8410 O      19499 WAT       0.2330
  19500 WAT        21.4090   28.3440   19.0910 O      19500 WAT       0.0981
  19501 WAT        21.4090   28.3440   20.5910 O      19501 WAT       0.0488
  19502 WAT        21.4090   28.3440   20.8410 O      19502 WAT       0.0753
  19503 WAT        21.4090   28.3440   21.0910 O      19503 WAT       0.0793
  19504 WAT        21.4090   28.3440   21.3410 O      19504 WAT       0.0568
  19505 WAT        21.4090   28.5940   17.5910 O      19505 WAT       0.0538
  19506 WAT        21.4090   28.5940   17.8410 O      19506 WAT       0.1394
  19507 WAT        21.4090   28.5940   18.0910 O      19507 WAT       0.2414
  19508 WAT        21.4090   28.5940   18.3410 O      19508 WAT       0.2854
  19509 WAT        21.4090   28.5940   18.5910 O      19509 WAT       0.2333
  19510 WAT        21.4090   28.5940   18.8410 O      19510 WAT       0.1341
  19511 WAT        21.4090   28.5940   19.0910 O      19511 WAT       0.0550
  19512 WAT        21.4090   28.5940   20.5910 O      19512 WAT       0.0814
  19513 WAT        21.4090   28.5940   20.8410 O      19513 WAT       0.1228
  19514 WAT        21.4090   28.5940   21.0910 O      19514 WAT       0.1267
  19515 WAT        21.4090   28.5940   21.3410 O      19515 WAT       0.0889
  19516 WAT        21.4090   28.8440   17.8410 O      19516 WAT       0.0587
  19517 WAT        21.4090   28.8440   18.0910 O      19517 WAT       0.0990
  19518 WAT        21.4090   28.8440   18.3410 O      19518 WAT       0.1135
  19519 WAT        21.4090   28.8440   18.5910 O      19519 WAT       0.0900
  19520 WAT        21.4090   28.8440   18.8410 O      19520 WAT       0.0498
  19521 WAT        21.4090   28.8440   20.5910 O      19521 WAT       0.0918
  19522 WAT        21.4090   28.8440   20.8410 O      19522 WAT       0.1375
  19523 WAT        21.4090   28.8440   21.0910 O      19523 WAT       0.1414
  19524 WAT        21.4090   28.8440   21.3410 O      19524 WAT       0.0992
  19525 WAT        21.4090   28.8440   21.5910 O      19525 WAT       0.0469
  19526 WAT        21.4090   29.0940   20.5910 O      19526 WAT       0.0675
  19527 WAT        21.4090   29.0940   20.8410 O      19527 WAT       0.1015
  19528 WAT        21.4090   29.0940   21.0910 O      19528 WAT       0.1051
  19529 WAT        21.4090   29.0940   21.3410 O      19529 WAT       0.0746
  19530 WAT        21.4090   29.3440   20.8410 O      19530 WAT       0.0480
  19531 WAT        21.4090   29.3440   21.0910 O      19531 WAT       0.0506
  19532 WAT        21.4090   33.3440   10.3410 O      19532 WAT       0.0574
  19533 WAT        21.4090   33.3440   10.5910 O      19533 WAT       0.1021
  19534 WAT        21.4090   33.3440   10.8410 O      19534 WAT       0.1165
  19535 WAT        21.4090   33.3440   11.0910 O      19535 WAT       0.0866
  19536 WAT        21.4090   33.5940   10.3410 O      19536 WAT       0.1246
  19537 WAT        21.4090   33.5940   10.5910 O      19537 WAT       0.2261
  19538 WAT        21.4090   33.5940   10.8410 O      19538 WAT       0.2678
  19539 WAT        21.4090   33.5940   11.0910 O      19539 WAT       0.2102
  19540 WAT        21.4090   33.5940   11.3410 O      19540 WAT       0.1115
  19541 WAT        21.4090   33.8440   10.0910 O      19541 WAT       0.0565
  19542 WAT        21.4090   33.8440   10.3410 O      19542 WAT       0.1659
  19543 WAT        21.4090   33.8440   10.5910 O      19543 WAT       0.3123
  19544 WAT        21.4090   33.8440   10.8410 O      19544 WAT       0.3884
  19545 WAT        21.4090   33.8440   11.0910 O      19545 WAT       0.3255
  19546 WAT        21.4090   33.8440   11.3410 O      19546 WAT       0.1890
  19547 WAT        21.4090   33.8440   11.5910 O      19547 WAT       0.0780
  19548 WAT        21.4090   34.0940   10.3410 O      19548 WAT       0.1380
  19549 WAT        21.4090   34.0940   10.5910 O      19549 WAT       0.2727
  19550 WAT        21.4090   34.0940   10.8410 O      19550 WAT       0.3612
  19551 WAT        21.4090   34.0940   11.0910 O      19551 WAT       0.3291
  19552 WAT        21.4090   34.0940   11.3410 O      19552 WAT       0.2131
  19553 WAT        21.4090   34.0940   11.5910 O      19553 WAT       0.1012
  19554 WAT        21.4090   34.0940   28.0910 O      19554 WAT       0.0596
  19555 WAT        21.4090   34.0940   28.3410 O      19555 WAT       0.0908
  19556 WAT        21.4090   34.0940   28.5910 O      19556 WAT       0.1057
  19557 WAT        21.4090   34.0940   28.8410 O      19557 WAT       0.0965
  19558 WAT        21.4090   34.0940   29.0910 O      19558 WAT       0.0697
  19559 WAT        21.4090   34.3440   10.3410 O      19559 WAT       0.0720
  19560 WAT        21.4090   34.3440   10.5910 O      19560 WAT       0.1526
  19561 WAT        21.4090   34.3440   10.8410 O      19561 WAT       0.2191
  19562 WAT        21.4090   34.3440   11.0910 O      19562 WAT       0.2216
  19563 WAT        21.4090   34.3440   11.3410 O      19563 WAT       0.1633
  19564 WAT        21.4090   34.3440   11.5910 O      19564 WAT       0.0901
  19565 WAT        21.4090   34.3440   27.8410 O      19565 WAT       0.0585
  19566 WAT        21.4090   34.3440   28.0910 O      19566 WAT       0.1196
  19567 WAT        21.4090   34.3440   28.3410 O      19567 WAT       0.1827
  19568 WAT        21.4090   34.3440   28.5910 O      19568 WAT       0.2150
  19569 WAT        21.4090   34.3440   28.8410 O      19569 WAT       0.1993
  19570 WAT        21.4090   34.3440   29.0910 O      19570 WAT       0.1464
  19571 WAT        21.4090   34.3440   29.3410 O      19571 WAT       0.0846
  19572 WAT        21.4090   34.5940   10.5910 O      19572 WAT       0.0544
  19573 WAT        21.4090   34.5940   10.8410 O      19573 WAT       0.0877
  19574 WAT        21.4090   34.5940   11.0910 O      19574 WAT       0.1009
  19575 WAT        21.4090   34.5940   11.3410 O      19575 WAT       0.0863
  19576 WAT        21.4090   34.5940   11.5910 O      19576 WAT       0.0558
  19577 WAT        21.4090   34.5940   27.8410 O      19577 WAT       0.0807
  19578 WAT        21.4090   34.5940   28.0910 O      19578 WAT       0.1661
  19579 WAT        21.4090   34.5940   28.3410 O      19579 WAT       0.2569
  19580 WAT        21.4090   34.5940   28.5910 O      19580 WAT       0.3071
  19581 WAT        21.4090   34.5940   28.8410 O      19581 WAT       0.2886
  19582 WAT        21.4090   34.5940   29.0910 O      19582 WAT       0.2143
  19583 WAT        21.4090   34.5940   29.3410 O      19583 WAT       0.1252
  19584 WAT        21.4090   34.5940   29.5910 O      19584 WAT       0.0563
  19585 WAT        21.4090   34.8440   27.8410 O      19585 WAT       0.0756
  19586 WAT        21.4090   34.8440   28.0910 O      19586 WAT       0.1590
  19587 WAT        21.4090   34.8440   28.3410 O      19587 WAT       0.2515
  19588 WAT        21.4090   34.8440   28.5910 O      19588 WAT       0.3069
  19589 WAT        21.4090   34.8440   28.8410 O      19589 WAT       0.2929
  19590 WAT        21.4090   34.8440   29.0910 O      19590 WAT       0.2197
  19591 WAT        21.4090   34.8440   29.3410 O      19591 WAT       0.1293
  19592 WAT        21.4090   34.8440   29.5910 O      19592 WAT       0.0586
  19593 WAT        21.4090   35.0940   27.8410 O      19593 WAT       0.0477
  19594 WAT        21.4090   35.0940   28.0910 O      19594 WAT       0.1039
  19595 WAT        21.4090   35.0940   28.3410 O      19595 WAT       0.1698
  19596 WAT        21.4090   35.0940   28.5910 O      19596 WAT       0.2128
  19597 WAT        21.4090   35.0940   28.8410 O      19597 WAT       0.2071
  19598 WAT        21.4090   35.0940   29.0910 O      19598 WAT       0.1572
  19599 WAT        21.4090   35.0940   29.3410 O      19599 WAT       0.0932
  19600 WAT        21.4090   35.3440   28.0910 O      19600 WAT       0.0457
  19601 WAT        21.4090   35.3440   28.3410 O      19601 WAT       0.0779
  19602 WAT        21.4090   35.3440   28.5910 O      19602 WAT       0.1010
  19603 WAT        21.4090   35.3440   28.8410 O      19603 WAT       0.1006
  19604 WAT        21.4090   35.3440   29.0910 O      19604 WAT       0.0774
  19605 WAT        21.4090   35.3440   29.3410 O      19605 WAT       0.0462
  19606 WAT        21.6590    8.3440   18.8410 O      19606 WAT       0.0503
  19607 WAT        21.6590    8.3440   19.0910 O      19607 WAT       0.1095
  19608 WAT        21.6590    8.3440   19.3410 O      19608 WAT       0.1874
  19609 WAT        21.6590    8.3440   19.5910 O      19609 WAT       0.2494
  19610 WAT        21.6590    8.3440   19.8410 O      19610 WAT       0.2590
  19611 WAT        21.6590    8.3440   20.0910 O      19611 WAT       0.2120
  19612 WAT        21.6590    8.3440   20.3410 O      19612 WAT       0.1382
  19613 WAT        21.6590    8.3440   20.5910 O      19613 WAT       0.0730
  19614 WAT        21.6590    8.3440   22.3410 O      19614 WAT       0.0601
  19615 WAT        21.6590    8.3440   22.5910 O      19615 WAT       0.0911
  19616 WAT        21.6590    8.3440   22.8410 O      19616 WAT       0.1211
  19617 WAT        21.6590    8.3440   23.0910 O      19617 WAT       0.1448
  19618 WAT        21.6590    8.3440   23.3410 O      19618 WAT       0.1562
  19619 WAT        21.6590    8.3440   23.5910 O      19619 WAT       0.1479
  19620 WAT        21.6590    8.3440   23.8410 O      19620 WAT       0.1186
  19621 WAT        21.6590    8.3440   24.0910 O      19621 WAT       0.0793
  19622 WAT        21.6590    8.3440   26.0910 O      19622 WAT       0.0549
  19623 WAT        21.6590    8.3440   26.3410 O      19623 WAT       0.0578
  19624 WAT        21.6590    8.3440   26.5910 O      19624 WAT       0.0466
  19625 WAT        21.6590    8.5940   15.3410 O      19625 WAT       0.0555
  19626 WAT        21.6590    8.5940   15.5910 O      19626 WAT       0.0632
  19627 WAT        21.6590    8.5940   15.8410 O      19627 WAT       0.0626
  19628 WAT        21.6590    8.5940   16.0910 O      19628 WAT       0.0559
  19629 WAT        21.6590    8.5940   16.3410 O      19629 WAT       0.0475
  19630 WAT        21.6590    8.5940   18.8410 O      19630 WAT       0.0734
  19631 WAT        21.6590    8.5940   19.0910 O      19631 WAT       0.1603
  19632 WAT        21.6590    8.5940   19.3410 O      19632 WAT       0.2794
  19633 WAT        21.6590    8.5940   19.5910 O      19633 WAT       0.3813
  19634 WAT        21.6590    8.5940   19.8410 O      19634 WAT       0.4072
  19635 WAT        21.6590    8.5940   20.0910 O      19635 WAT       0.3430
  19636 WAT        21.6590    8.5940   20.3410 O      19636 WAT       0.2308
  19637 WAT        21.6590    8.5940   20.5910 O      19637 WAT       0.1262
  19638 WAT        21.6590    8.5940   20.8410 O      19638 WAT       0.0580
  19639 WAT        21.6590    8.5940   22.3410 O      19639 WAT       0.0670
  19640 WAT        21.6590    8.5940   22.5910 O      19640 WAT       0.0957
  19641 WAT        21.6590    8.5940   22.8410 O      19641 WAT       0.1213
  19642 WAT        21.6590    8.5940   23.0910 O      19642 WAT       0.1397
  19643 WAT        21.6590    8.5940   23.3410 O      19643 WAT       0.1466
  19644 WAT        21.6590    8.5940   23.5910 O      19644 WAT       0.1353
  19645 WAT        21.6590    8.5940   23.8410 O      19645 WAT       0.1060
  19646 WAT        21.6590    8.5940   24.0910 O      19646 WAT       0.0694
  19647 WAT        21.6590    8.5940   26.0910 O      19647 WAT       0.0582
  19648 WAT        21.6590    8.5940   26.3410 O      19648 WAT       0.0610
  19649 WAT        21.6590    8.5940   26.5910 O      19649 WAT       0.0479
  19650 WAT        21.6590    8.8440   15.3410 O      19650 WAT       0.0629
  19651 WAT        21.6590    8.8440   15.5910 O      19651 WAT       0.0803
  19652 WAT        21.6590    8.8440   15.8410 O      19652 WAT       0.0893
  19653 WAT        21.6590    8.8440   16.0910 O      19653 WAT       0.0900
  19654 WAT        21.6590    8.8440   16.3410 O      19654 WAT       0.0862
  19655 WAT        21.6590    8.8440   16.5910 O      19655 WAT       0.0798
  19656 WAT        21.6590    8.8440   16.8410 O      19656 WAT       0.0691
  19657 WAT        21.6590    8.8440   17.0910 O      19657 WAT       0.0527
  19658 WAT        21.6590    8.8440   18.8410 O      19658 WAT       0.0750
  19659 WAT        21.6590    8.8440   19.0910 O      19659 WAT       0.1671
  19660 WAT        21.6590    8.8440   19.3410 O      19660 WAT       0.3010
  19661 WAT        21.6590    8.8440   19.5910 O      19661 WAT       0.4269
  19662 WAT        21.6590    8.8440   19.8410 O      19662 WAT       0.4739
  19663 WAT        21.6590    8.8440   20.0910 O      19663 WAT       0.4143
  19664 WAT        21.6590    8.8440   20.3410 O      19664 WAT       0.2891
  19665 WAT        21.6590    8.8440   20.5910 O      19665 WAT       0.1640
  19666 WAT        21.6590    8.8440   20.8410 O      19666 WAT       0.0784
  19667 WAT        21.6590    8.8440   22.3410 O      19667 WAT       0.0561
  19668 WAT        21.6590    8.8440   22.5910 O      19668 WAT       0.0739
  19669 WAT        21.6590    8.8440   22.8410 O      19669 WAT       0.0883
  19670 WAT        21.6590    8.8440   23.0910 O      19670 WAT       0.0973
  19671 WAT        21.6590    8.8440   23.3410 O      19671 WAT       0.0985
  19672 WAT        21.6590    8.8440   23.5910 O      19672 WAT       0.0881
  19673 WAT        21.6590    8.8440   23.8410 O      19673 WAT       0.0669
  19674 WAT        21.6590    8.8440   26.0910 O      19674 WAT       0.0466
  19675 WAT        21.6590    8.8440   26.3410 O      19675 WAT       0.0490
  19676 WAT        21.6590    9.0940   15.3410 O      19676 WAT       0.0494
  19677 WAT        21.6590    9.0940   15.5910 O      19677 WAT       0.0697
  19678 WAT        21.6590    9.0940   15.8410 O      19678 WAT       0.0864
  19679 WAT        21.6590    9.0940   16.0910 O      19679 WAT       0.0979
  19680 WAT        21.6590    9.0940   16.3410 O      19680 WAT       0.1055
  19681 WAT        21.6590    9.0940   16.5910 O      19681 WAT       0.1083
  19682 WAT        21.6590    9.0940   16.8410 O      19682 WAT       0.1012
  19683 WAT        21.6590    9.0940   17.0910 O      19683 WAT       0.0802
  19684 WAT        21.6590    9.0940   17.3410 O      19684 WAT       0.0514
  19685 WAT        21.6590    9.0940   18.8410 O      19685 WAT       0.0538
  19686 WAT        21.6590    9.0940   19.0910 O      19686 WAT       0.1242
  19687 WAT        21.6590    9.0940   19.3410 O      19687 WAT       0.2343
  19688 WAT        21.6590    9.0940   19.5910 O      19688 WAT       0.3489
  19689 WAT        21.6590    9.0940   19.8410 O      19689 WAT       0.4055
  19690 WAT        21.6590    9.0940   20.0910 O      19690 WAT       0.3697
  19691 WAT        21.6590    9.0940   20.3410 O      19691 WAT       0.2682
  19692 WAT        21.6590    9.0940   20.5910 O      19692 WAT       0.1583
  19693 WAT        21.6590    9.0940   20.8410 O      19693 WAT       0.0789
  19694 WAT        21.6590    9.0940   22.8410 O      19694 WAT       0.0460
  19695 WAT        21.6590    9.0940   23.0910 O      19695 WAT       0.0477
  19696 WAT        21.6590    9.0940   23.3410 O      19696 WAT       0.0460
  19697 WAT        21.6590    9.3440   15.8410 O      19697 WAT       0.0568
  19698 WAT        21.6590    9.3440   16.0910 O      19698 WAT       0.0722
  19699 WAT        21.6590    9.3440   16.3410 O      19699 WAT       0.0875
  19700 WAT        21.6590    9.3440   16.5910 O      19700 WAT       0.0997
  19701 WAT        21.6590    9.3440   16.8410 O      19701 WAT       0.1008
  19702 WAT        21.6590    9.3440   17.0910 O      19702 WAT       0.0839
  19703 WAT        21.6590    9.3440   17.3410 O      19703 WAT       0.0549
  19704 WAT        21.6590    9.3440   19.0910 O      19704 WAT       0.0655
  19705 WAT        21.6590    9.3440   19.3410 O      19705 WAT       0.1312
  19706 WAT        21.6590    9.3440   19.5910 O      19706 WAT       0.2065
  19707 WAT        21.6590    9.3440   19.8410 O      19707 WAT       0.2524
  19708 WAT        21.6590    9.3440   20.0910 O      19708 WAT       0.2405
  19709 WAT        21.6590    9.3440   20.3410 O      19709 WAT       0.1819
  19710 WAT        21.6590    9.3440   20.5910 O      19710 WAT       0.1120
  19711 WAT        21.6590    9.3440   20.8410 O      19711 WAT       0.0583
  19712 WAT        21.6590    9.3440   27.8410 O      19712 WAT       0.0587
  19713 WAT        21.6590    9.3440   28.0910 O      19713 WAT       0.0505
  19714 WAT        21.6590    9.5940   16.3410 O      19714 WAT       0.0499
  19715 WAT        21.6590    9.5940   16.5910 O      19715 WAT       0.0632
  19716 WAT        21.6590    9.5940   16.8410 O      19716 WAT       0.0694
  19717 WAT        21.6590    9.5940   17.0910 O      19717 WAT       0.0613
  19718 WAT        21.6590    9.5940   19.3410 O      19718 WAT       0.0520
  19719 WAT        21.6590    9.5940   19.5910 O      19719 WAT       0.0873
  19720 WAT        21.6590    9.5940   19.8410 O      19720 WAT       0.1127
  19721 WAT        21.6590    9.5940   20.0910 O      19721 WAT       0.1125
  19722 WAT        21.6590    9.5940   20.3410 O      19722 WAT       0.0889
  19723 WAT        21.6590    9.5940   20.5910 O      19723 WAT       0.0571
  19724 WAT        21.6590    9.5940   27.5910 O      19724 WAT       0.0681
  19725 WAT        21.6590    9.5940   27.8410 O      19725 WAT       0.0917
  19726 WAT        21.6590    9.5940   28.0910 O      19726 WAT       0.0804
  19727 WAT        21.6590    9.5940   28.3410 O      19727 WAT       0.0457
  19728 WAT        21.6590    9.8440   27.5910 O      19728 WAT       0.0832
  19729 WAT        21.6590    9.8440   27.8410 O      19729 WAT       0.1153
  19730 WAT        21.6590    9.8440   28.0910 O      19730 WAT       0.1040
  19731 WAT        21.6590    9.8440   28.3410 O      19731 WAT       0.0608
  19732 WAT        21.6590   10.0940   27.5910 O      19732 WAT       0.0837
  19733 WAT        21.6590   10.0940   27.8410 O      19733 WAT       0.1200
  19734 WAT        21.6590   10.0940   28.0910 O      19734 WAT       0.1119
  19735 WAT        21.6590   10.0940   28.3410 O      19735 WAT       0.0676
  19736 WAT        21.6590   10.3440   27.5910 O      19736 WAT       0.0704
  19737 WAT        21.6590   10.3440   27.8410 O      19737 WAT       0.1048
  19738 WAT        21.6590   10.3440   28.0910 O      19738 WAT       0.1015
  19739 WAT        21.6590   10.3440   28.3410 O      19739 WAT       0.0639
  19740 WAT        21.6590   10.5940   27.5910 O      19740 WAT       0.0490
  19741 WAT        21.6590   10.5940   27.8410 O      19741 WAT       0.0765
  19742 WAT        21.6590   10.5940   28.0910 O      19742 WAT       0.0777
  19743 WAT        21.6590   10.5940   28.3410 O      19743 WAT       0.0515
  19744 WAT        21.6590   10.8440   27.8410 O      19744 WAT       0.0458
  19745 WAT        21.6590   10.8440   28.0910 O      19745 WAT       0.0493
  19746 WAT        21.6590   13.0940   10.0910 O      19746 WAT       0.0451
  19747 WAT        21.6590   13.3440    9.8410 O      19747 WAT       0.0478
  19748 WAT        21.6590   13.3440   10.0910 O      19748 WAT       0.0451
  19749 WAT        21.6590   13.5940    9.5910 O      19749 WAT       0.0494
  19750 WAT        21.6590   13.5940    9.8410 O      19750 WAT       0.0494
  19751 WAT        21.6590   13.8440    9.3410 O      19751 WAT       0.0510
  19752 WAT        21.6590   13.8440    9.5910 O      19752 WAT       0.0550
  19753 WAT        21.6590   13.8440    9.8410 O      19753 WAT       0.0463
  19754 WAT        21.6590   14.0940    9.0910 O      19754 WAT       0.0491
  19755 WAT        21.6590   14.0940    9.3410 O      19755 WAT       0.0594
  19756 WAT        21.6590   14.0940    9.5910 O      19756 WAT       0.0563
  19757 WAT        21.6590   14.3440    9.0910 O      19757 WAT       0.0569
  19758 WAT        21.6590   14.3440    9.3410 O      19758 WAT       0.0633
  19759 WAT        21.6590   14.3440    9.5910 O      19759 WAT       0.0529
  19760 WAT        21.6590   14.5940    8.8410 O      19760 WAT       0.0458
  19761 WAT        21.6590   14.5940    9.0910 O      19761 WAT       0.0598
  19762 WAT        21.6590   14.5940    9.3410 O      19762 WAT       0.0608
  19763 WAT        21.6590   14.5940    9.5910 O      19763 WAT       0.0454
  19764 WAT        21.6590   14.8440    8.8410 O      19764 WAT       0.0463
  19765 WAT        21.6590   14.8440    9.0910 O      19765 WAT       0.0565
  19766 WAT        21.6590   14.8440    9.3410 O      19766 WAT       0.0526
  19767 WAT        21.6590   15.0940    9.0910 O      19767 WAT       0.0486
  19768 WAT        21.6590   15.8440   20.0910 O      19768 WAT       0.0529
  19769 WAT        21.6590   16.0940   20.0910 O      19769 WAT       0.0548
  19770 WAT        21.6590   16.0940   20.3410 O      19770 WAT       0.0473
  19771 WAT        21.6590   16.3440    7.3410 O      19771 WAT       0.0467
  19772 WAT        21.6590   16.3440    7.5910 O      19772 WAT       0.0480
  19773 WAT        21.6590   16.5940    4.5910 O      19773 WAT       0.0466
  19774 WAT        21.6590   16.5940    4.8410 O      19774 WAT       0.0457
  19775 WAT        21.6590   16.5940    6.8410 O      19775 WAT       0.0472
  19776 WAT        21.6590   16.5940    7.0910 O      19776 WAT       0.0573
  19777 WAT        21.6590   16.5940    7.3410 O      19777 WAT       0.0626
  19778 WAT        21.6590   16.5940    7.5910 O      19778 WAT       0.0602
  19779 WAT        21.6590   16.5940    7.8410 O      19779 WAT       0.0520
  19780 WAT        21.6590   16.8440    4.5910 O      19780 WAT       0.0456
  19781 WAT        21.6590   16.8440    6.5910 O      19781 WAT       0.0500
  19782 WAT        21.6590   16.8440    6.8410 O      19782 WAT       0.0602
  19783 WAT        21.6590   16.8440    7.0910 O      19783 WAT       0.0684
  19784 WAT        21.6590   16.8440    7.3410 O      19784 WAT       0.0693
  19785 WAT        21.6590   16.8440    7.5910 O      19785 WAT       0.0614
  19786 WAT        21.6590   16.8440    7.8410 O      19786 WAT       0.0485
  19787 WAT        21.6590   17.0940    6.3410 O      19787 WAT       0.0493
  19788 WAT        21.6590   17.0940    6.5910 O      19788 WAT       0.0582
  19789 WAT        21.6590   17.0940    6.8410 O      19789 WAT       0.0654
  19790 WAT        21.6590   17.0940    7.0910 O      19790 WAT       0.0677
  19791 WAT        21.6590   17.0940    7.3410 O      19791 WAT       0.0623
  19792 WAT        21.6590   17.0940    7.5910 O      19792 WAT       0.0501
  19793 WAT        21.6590   17.3440    6.3410 O      19793 WAT       0.0498
  19794 WAT        21.6590   17.3440    6.5910 O      19794 WAT       0.0576
  19795 WAT        21.6590   17.3440    6.8410 O      19795 WAT       0.0599
  19796 WAT        21.6590   17.3440    7.0910 O      19796 WAT       0.0557
  19797 WAT        21.6590   17.3440    7.3410 O      19797 WAT       0.0456
  19798 WAT        21.6590   17.5940    6.5910 O      19798 WAT       0.0484
  19799 WAT        21.6590   17.5940    6.8410 O      19799 WAT       0.0469
  19800 WAT        21.6590   26.0940   21.3410 O      19800 WAT       0.0501
  19801 WAT        21.6590   26.0940   21.5910 O      19801 WAT       0.0512
  19802 WAT        21.6590   26.0940   21.8410 O      19802 WAT       0.0472
  19803 WAT        21.6590   26.3440   20.8410 O      19803 WAT       0.0515
  19804 WAT        21.6590   26.3440   21.0910 O      19804 WAT       0.0665
  19805 WAT        21.6590   26.3440   21.3410 O      19805 WAT       0.0740
  19806 WAT        21.6590   26.3440   21.5910 O      19806 WAT       0.0750
  19807 WAT        21.6590   26.3440   21.8410 O      19807 WAT       0.0711
  19808 WAT        21.6590   26.3440   22.0910 O      19808 WAT       0.0597
  19809 WAT        21.6590   26.5940   20.8410 O      19809 WAT       0.0595
  19810 WAT        21.6590   26.5940   21.0910 O      19810 WAT       0.0715
  19811 WAT        21.6590   26.5940   21.3410 O      19811 WAT       0.0760
  19812 WAT        21.6590   26.5940   21.5910 O      19812 WAT       0.0763
  19813 WAT        21.6590   26.5940   21.8410 O      19813 WAT       0.0742
  19814 WAT        21.6590   26.5940   22.0910 O      19814 WAT       0.0654
  19815 WAT        21.6590   26.5940   22.3410 O      19815 WAT       0.0474
  19816 WAT        21.6590   26.8440   20.8410 O      19816 WAT       0.0507
  19817 WAT        21.6590   26.8440   21.0910 O      19817 WAT       0.0555
  19818 WAT        21.6590   26.8440   21.3410 O      19818 WAT       0.0553
  19819 WAT        21.6590   26.8440   21.5910 O      19819 WAT       0.0539
  19820 WAT        21.6590   26.8440   21.8410 O      19820 WAT       0.0530
  19821 WAT        21.6590   26.8440   22.0910 O      19821 WAT       0.0487
  19822 WAT        21.6590   27.5940   18.0910 O      19822 WAT       0.0865
  19823 WAT        21.6590   27.5940   18.3410 O      19823 WAT       0.1152
  19824 WAT        21.6590   27.5940   18.5910 O      19824 WAT       0.1046
  19825 WAT        21.6590   27.5940   18.8410 O      19825 WAT       0.0655
  19826 WAT        21.6590   27.8440   17.8410 O      19826 WAT       0.0977
  19827 WAT        21.6590   27.8440   18.0910 O      19827 WAT       0.1823
  19828 WAT        21.6590   27.8440   18.3410 O      19828 WAT       0.2298
  19829 WAT        21.6590   27.8440   18.5910 O      19829 WAT       0.1984
  19830 WAT        21.6590   27.8440   18.8410 O      19830 WAT       0.1185
  19831 WAT        21.6590   27.8440   19.0910 O      19831 WAT       0.0491
  19832 WAT        21.6590   28.0940   17.5910 O      19832 WAT       0.0559
  19833 WAT        21.6590   28.0940   17.8410 O      19833 WAT       0.1500
  19834 WAT        21.6590   28.0940   18.0910 O      19834 WAT       0.2675
  19835 WAT        21.6590   28.0940   18.3410 O      19835 WAT       0.3233
  19836 WAT        21.6590   28.0940   18.5910 O      19836 WAT       0.2681
  19837 WAT        21.6590   28.0940   18.8410 O      19837 WAT       0.1546
  19838 WAT        21.6590   28.0940   19.0910 O      19838 WAT       0.0625
  19839 WAT        21.6590   28.3440   17.5910 O      19839 WAT       0.0606
  19840 WAT        21.6590   28.3440   17.8410 O      19840 WAT       0.1558
  19841 WAT        21.6590   28.3440   18.0910 O      19841 WAT       0.2676
  19842 WAT        21.6590   28.3440   18.3410 O      19842 WAT       0.3123
  19843 WAT        21.6590   28.3440   18.5910 O      19843 WAT       0.2507
  19844 WAT        21.6590   28.3440   18.8410 O      19844 WAT       0.1408
  19845 WAT        21.6590   28.3440   19.0910 O      19845 WAT       0.0556
  19846 WAT        21.6590   28.5940   17.8410 O      19846 WAT       0.1077
  19847 WAT        21.6590   28.5940   18.0910 O      19847 WAT       0.1793
  19848 WAT        21.6590   28.5940   18.3410 O      19848 WAT       0.2031
  19849 WAT        21.6590   28.5940   18.5910 O      19849 WAT       0.1586
  19850 WAT        21.6590   28.5940   18.8410 O      19850 WAT       0.0867
  19851 WAT        21.6590   28.8440   17.8410 O      19851 WAT       0.0485
  19852 WAT        21.6590   28.8440   18.0910 O      19852 WAT       0.0788
  19853 WAT        21.6590   28.8440   18.3410 O      19853 WAT       0.0869
  19854 WAT        21.6590   28.8440   18.5910 O      19854 WAT       0.0659
  19855 WAT        21.6590   33.5940   10.5910 O      19855 WAT       0.0832
  19856 WAT        21.6590   33.5940   10.8410 O      19856 WAT       0.1027
  19857 WAT        21.6590   33.5940   11.0910 O      19857 WAT       0.0845
  19858 WAT        21.6590   33.5940   11.3410 O      19858 WAT       0.0469
  19859 WAT        21.6590   33.8440   10.3410 O      19859 WAT       0.0602
  19860 WAT        21.6590   33.8440   10.5910 O      19860 WAT       0.1189
  19861 WAT        21.6590   33.8440   10.8410 O      19861 WAT       0.1552
  19862 WAT        21.6590   33.8440   11.0910 O      19862 WAT       0.1380
  19863 WAT        21.6590   33.8440   11.3410 O      19863 WAT       0.0861
  19864 WAT        21.6590   34.0940   10.3410 O      19864 WAT       0.0513
  19865 WAT        21.6590   34.0940   10.5910 O      19865 WAT       0.1080
  19866 WAT        21.6590   34.0940   10.8410 O      19866 WAT       0.1516
  19867 WAT        21.6590   34.0940   11.0910 O      19867 WAT       0.1485
  19868 WAT        21.6590   34.0940   11.3410 O      19868 WAT       0.1049
  19869 WAT        21.6590   34.0940   11.5910 O      19869 WAT       0.0552
  19870 WAT        21.6590   34.0940   28.0910 O      19870 WAT       0.0597
  19871 WAT        21.6590   34.0940   28.3410 O      19871 WAT       0.0820
  19872 WAT        21.6590   34.0940   28.5910 O      19872 WAT       0.0850
  19873 WAT        21.6590   34.0940   28.8410 O      19873 WAT       0.0684
  19874 WAT        21.6590   34.3440   10.5910 O      19874 WAT       0.0626
  19875 WAT        21.6590   34.3440   10.8410 O      19875 WAT       0.0976
  19876 WAT        21.6590   34.3440   11.0910 O      19876 WAT       0.1080
  19877 WAT        21.6590   34.3440   11.3410 O      19877 WAT       0.0883
  19878 WAT        21.6590   34.3440   11.5910 O      19878 WAT       0.0546
  19879 WAT        21.6590   34.3440   27.8410 O      19879 WAT       0.0634
  19880 WAT        21.6590   34.3440   28.0910 O      19880 WAT       0.1180
  19881 WAT        21.6590   34.3440   28.3410 O      19881 WAT       0.1629
  19882 WAT        21.6590   34.3440   28.5910 O      19882 WAT       0.1712
  19883 WAT        21.6590   34.3440   28.8410 O      19883 WAT       0.1406
  19884 WAT        21.6590   34.3440   29.0910 O      19884 WAT       0.0915
  19885 WAT        21.6590   34.3440   29.3410 O      19885 WAT       0.0470
  19886 WAT        21.6590   34.5940   11.0910 O      19886 WAT       0.0542
  19887 WAT        21.6590   34.5940   11.3410 O      19887 WAT       0.0524
  19888 WAT        21.6590   34.5940   27.8410 O      19888 WAT       0.0858
  19889 WAT        21.6590   34.5940   28.0910 O      19889 WAT       0.1612
  19890 WAT        21.6590   34.5940   28.3410 O      19890 WAT       0.2258
  19891 WAT        21.6590   34.5940   28.5910 O      19891 WAT       0.2418
  19892 WAT        21.6590   34.5940   28.8410 O      19892 WAT       0.2026
  19893 WAT        21.6590   34.5940   29.0910 O      19893 WAT       0.1344
  19894 WAT        21.6590   34.5940   29.3410 O      19894 WAT       0.0705
  19895 WAT        21.6590   34.8440   27.8410 O      19895 WAT       0.0788
  19896 WAT        21.6590   34.8440   28.0910 O      19896 WAT       0.1514
  19897 WAT        21.6590   34.8440   28.3410 O      19897 WAT       0.2174
  19898 WAT        21.6590   34.8440   28.5910 O      19898 WAT       0.2392
  19899 WAT        21.6590   34.8440   28.8410 O      19899 WAT       0.2053
  19900 WAT        21.6590   34.8440   29.0910 O      19900 WAT       0.1389
  19901 WAT        21.6590   34.8440   29.3410 O      19901 WAT       0.0743
  19902 WAT        21.6590   35.0940   27.8410 O      19902 WAT       0.0487
  19903 WAT        21.6590   35.0940   28.0910 O      19903 WAT       0.0970
  19904 WAT        21.6590   35.0940   28.3410 O      19904 WAT       0.1443
  19905 WAT        21.6590   35.0940   28.5910 O      19905 WAT       0.1644
  19906 WAT        21.6590   35.0940   28.8410 O      19906 WAT       0.1456
  19907 WAT        21.6590   35.0940   29.0910 O      19907 WAT       0.1010
  19908 WAT        21.6590   35.0940   29.3410 O      19908 WAT       0.0551
  19909 WAT        21.6590   35.3440   28.3410 O      19909 WAT       0.0652
  19910 WAT        21.6590   35.3440   28.5910 O      19910 WAT       0.0776
  19911 WAT        21.6590   35.3440   28.8410 O      19911 WAT       0.0712
  19912 WAT        21.6590   35.3440   29.0910 O      19912 WAT       0.0508
  19913 WAT        21.9090    8.3440   19.0910 O      19913 WAT       0.0720
  19914 WAT        21.9090    8.3440   19.3410 O      19914 WAT       0.1175
  19915 WAT        21.9090    8.3440   19.5910 O      19915 WAT       0.1527
  19916 WAT        21.9090    8.3440   19.8410 O      19916 WAT       0.1574
  19917 WAT        21.9090    8.3440   20.0910 O      19917 WAT       0.1289
  19918 WAT        21.9090    8.3440   20.3410 O      19918 WAT       0.0845
  19919 WAT        21.9090    8.3440   20.5910 O      19919 WAT       0.0450
  19920 WAT        21.9090    8.3440   22.3410 O      19920 WAT       0.0465
  19921 WAT        21.9090    8.3440   22.5910 O      19921 WAT       0.0663
  19922 WAT        21.9090    8.3440   22.8410 O      19922 WAT       0.0832
  19923 WAT        21.9090    8.3440   23.0910 O      19923 WAT       0.0932
  19924 WAT        21.9090    8.3440   23.3410 O      19924 WAT       0.0935
  19925 WAT        21.9090    8.3440   23.5910 O      19925 WAT       0.0818
  19926 WAT        21.9090    8.3440   23.8410 O      19926 WAT       0.0603
  19927 WAT        21.9090    8.3440   25.8410 O      19927 WAT       0.0543
  19928 WAT        21.9090    8.3440   26.0910 O      19928 WAT       0.0694
  19929 WAT        21.9090    8.3440   26.3410 O      19929 WAT       0.0670
  19930 WAT        21.9090    8.3440   26.5910 O      19930 WAT       0.0491
  19931 WAT        21.9090    8.5940   15.5910 O      19931 WAT       0.0469
  19932 WAT        21.9090    8.5940   15.8410 O      19932 WAT       0.0530
  19933 WAT        21.9090    8.5940   16.0910 O      19933 WAT       0.0535
  19934 WAT        21.9090    8.5940   16.3410 O      19934 WAT       0.0507
  19935 WAT        21.9090    8.5940   16.5910 O      19935 WAT       0.0470
  19936 WAT        21.9090    8.5940   18.8410 O      19936 WAT       0.0529
  19937 WAT        21.9090    8.5940   19.0910 O      19937 WAT       0.1059
  19938 WAT        21.9090    8.5940   19.3410 O      19938 WAT       0.1767
  19939 WAT        21.9090    8.5940   19.5910 O      19939 WAT       0.2367
  19940 WAT        21.9090    8.5940   19.8410 O      19940 WAT       0.2516
  19941 WAT        21.9090    8.5940   20.0910 O      19941 WAT       0.2125
  19942 WAT        21.9090    8.5940   20.3410 O      19942 WAT       0.1437
  19943 WAT        21.9090    8.5940   20.5910 O      19943 WAT       0.0790
  19944 WAT        21.9090    8.5940   22.3410 O      19944 WAT       0.0495
  19945 WAT        21.9090    8.5940   22.5910 O      19945 WAT       0.0684
  19946 WAT        21.9090    8.5940   22.8410 O      19946 WAT       0.0834
  19947 WAT        21.9090    8.5940   23.0910 O      19947 WAT       0.0916
  19948 WAT        21.9090    8.5940   23.3410 O      19948 WAT       0.0905
  19949 WAT        21.9090    8.5940   23.5910 O      19949 WAT       0.0778
  19950 WAT        21.9090    8.5940   23.8410 O      19950 WAT       0.0560
  19951 WAT        21.9090    8.5940   25.8410 O      19951 WAT       0.0538
  19952 WAT        21.9090    8.5940   26.0910 O      19952 WAT       0.0685
  19953 WAT        21.9090    8.5940   26.3410 O      19953 WAT       0.0653
  19954 WAT        21.9090    8.5940   26.5910 O      19954 WAT       0.0467
  19955 WAT        21.9090    8.8440   15.5910 O      19955 WAT       0.0608
  19956 WAT        21.9090    8.8440   15.8410 O      19956 WAT       0.0766
  19957 WAT        21.9090    8.8440   16.0910 O      19957 WAT       0.0861
  19958 WAT        21.9090    8.8440   16.3410 O      19958 WAT       0.0907
  19959 WAT        21.9090    8.8440   16.5910 O      19959 WAT       0.0909
  19960 WAT        21.9090    8.8440   16.8410 O      19960 WAT       0.0849
  19961 WAT        21.9090    8.8440   17.0910 O      19961 WAT       0.0702
  19962 WAT        21.9090    8.8440   17.3410 O      19962 WAT       0.0495
  19963 WAT        21.9090    8.8440   18.8410 O      19963 WAT       0.0550
  19964 WAT        21.9090    8.8440   19.0910 O      19964 WAT       0.1127
  19965 WAT        21.9090    8.8440   19.3410 O      19965 WAT       0.1948
  19966 WAT        21.9090    8.8440   19.5910 O      19966 WAT       0.2716
  19967 WAT        21.9090    8.8440   19.8410 O      19967 WAT       0.3004
  19968 WAT        21.9090    8.8440   20.0910 O      19968 WAT       0.2632
  19969 WAT        21.9090    8.8440   20.3410 O      19969 WAT       0.1843
  19970 WAT        21.9090    8.8440   20.5910 O      19970 WAT       0.1048
  19971 WAT        21.9090    8.8440   20.8410 O      19971 WAT       0.0500
  19972 WAT        21.9090    8.8440   22.5910 O      19972 WAT       0.0521
  19973 WAT        21.9090    8.8440   22.8410 O      19973 WAT       0.0608
  19974 WAT        21.9090    8.8440   23.0910 O      19974 WAT       0.0646
  19975 WAT        21.9090    8.8440   23.3410 O      19975 WAT       0.0621
  19976 WAT        21.9090    8.8440   23.5910 O      19976 WAT       0.0520
  19977 WAT        21.9090    8.8440   26.0910 O      19977 WAT       0.0510
  19978 WAT        21.9090    8.8440   26.3410 O      19978 WAT       0.0485
  19979 WAT        21.9090    9.0940   15.5910 O      19979 WAT       0.0565
  19980 WAT        21.9090    9.0940   15.8410 O      19980 WAT       0.0784
  19981 WAT        21.9090    9.0940   16.0910 O      19981 WAT       0.0980
  19982 WAT        21.9090    9.0940   16.3410 O      19982 WAT       0.1144
  19983 WAT        21.9090    9.0940   16.5910 O      19983 WAT       0.1251
  19984 WAT        21.9090    9.0940   16.8410 O      19984 WAT       0.1232
  19985 WAT        21.9090    9.0940   17.0910 O      19985 WAT       0.1037
  19986 WAT        21.9090    9.0940   17.3410 O      19986 WAT       0.0718
  19987 WAT        21.9090    9.0940   19.0910 O      19987 WAT       0.0866
  19988 WAT        21.9090    9.0940   19.3410 O      19988 WAT       0.1569
  19989 WAT        21.9090    9.0940   19.5910 O      19989 WAT       0.2298
  19990 WAT        21.9090    9.0940   19.8410 O      19990 WAT       0.2660
  19991 WAT        21.9090    9.0940   20.0910 O      19991 WAT       0.2425
  19992 WAT        21.9090    9.0940   20.3410 O      19992 WAT       0.1761
  19993 WAT        21.9090    9.0940   20.5910 O      19993 WAT       0.1038
  19994 WAT        21.9090    9.0940   20.8410 O      19994 WAT       0.0513
  19995 WAT        21.9090    9.0940   27.8410 O      19995 WAT       0.0531
  19996 WAT        21.9090    9.0940   28.0910 O      19996 WAT       0.0466
  19997 WAT        21.9090    9.3440   15.8410 O      19997 WAT       0.0567
  19998 WAT        21.9090    9.3440   16.0910 O      19998 WAT       0.0783
  19999 WAT        21.9090    9.3440   16.3410 O      19999 WAT       0.1013
  20000 WAT        21.9090    9.3440   16.5910 O      20000 WAT       0.1210
  20001 WAT        21.9090    9.3440   16.8410 O      20001 WAT       0.1271
  20002 WAT        21.9090    9.3440   17.0910 O      20002 WAT       0.1107
  20003 WAT        21.9090    9.3440   17.3410 O      20003 WAT       0.0770
  20004 WAT        21.9090    9.3440   19.0910 O      20004 WAT       0.0478
  20005 WAT        21.9090    9.3440   19.3410 O      20005 WAT       0.0917
  20006 WAT        21.9090    9.3440   19.5910 O      20006 WAT       0.1420
  20007 WAT        21.9090    9.3440   19.8410 O      20007 WAT       0.1725
  20008 WAT        21.9090    9.3440   20.0910 O      20008 WAT       0.1642
  20009 WAT        21.9090    9.3440   20.3410 O      20009 WAT       0.1239
  20010 WAT        21.9090    9.3440   20.5910 O      20010 WAT       0.0758
  20011 WAT        21.9090    9.3440   27.5910 O      20011 WAT       0.0790
  20012 WAT        21.9090    9.3440   27.8410 O      20012 WAT       0.1048
  20013 WAT        21.9090    9.3440   28.0910 O      20013 WAT       0.0910
  20014 WAT        21.9090    9.3440   28.3410 O      20014 WAT       0.0515
  20015 WAT        21.9090    9.5940   16.0910 O      20015 WAT       0.0454
  20016 WAT        21.9090    9.5940   16.3410 O      20016 WAT       0.0644
  20017 WAT        21.9090    9.5940   16.5910 O      20017 WAT       0.0839
  20018 WAT        21.9090    9.5940   16.8410 O      20018 WAT       0.0945
  20019 WAT        21.9090    9.5940   17.0910 O      20019 WAT       0.0864
  20020 WAT        21.9090    9.5940   17.3410 O      20020 WAT       0.0616
  20021 WAT        21.9090    9.5940   19.5910 O      20021 WAT       0.0631
  20022 WAT        21.9090    9.5940   19.8410 O      20022 WAT       0.0809
  20023 WAT        21.9090    9.5940   20.0910 O      20023 WAT       0.0806
  20024 WAT        21.9090    9.5940   20.3410 O      20024 WAT       0.0635
  20025 WAT        21.9090    9.5940   27.3410 O      20025 WAT       0.0604
  20026 WAT        21.9090    9.5940   27.5910 O      20026 WAT       0.1234
  20027 WAT        21.9090    9.5940   27.8410 O      20027 WAT       0.1648
  20028 WAT        21.9090    9.5940   28.0910 O      20028 WAT       0.1437
  20029 WAT        21.9090    9.5940   28.3410 O      20029 WAT       0.0816
  20030 WAT        21.9090    9.8440   16.8410 O      20030 WAT       0.0532
  20031 WAT        21.9090    9.8440   17.0910 O      20031 WAT       0.0514
  20032 WAT        21.9090    9.8440   27.3410 O      20032 WAT       0.0741
  20033 WAT        21.9090    9.8440   27.5910 O      20033 WAT       0.1546
  20034 WAT        21.9090    9.8440   27.8410 O      20034 WAT       0.2098
  20035 WAT        21.9090    9.8440   28.0910 O      20035 WAT       0.1857
  20036 WAT        21.9090    9.8440   28.3410 O      20036 WAT       0.1068
  20037 WAT        21.9090   10.0940   27.3410 O      20037 WAT       0.0744
  20038 WAT        21.9090   10.0940   27.5910 O      20038 WAT       0.1593
  20039 WAT        21.9090   10.0940   27.8410 O      20039 WAT       0.2212
  20040 WAT        21.9090   10.0940   28.0910 O      20040 WAT       0.1999
  20041 WAT        21.9090   10.0940   28.3410 O      20041 WAT       0.1171
  20042 WAT        21.9090   10.3440   27.3410 O      20042 WAT       0.0620
  20043 WAT        21.9090   10.3440   27.5910 O      20043 WAT       0.1371
  20044 WAT        21.9090   10.3440   27.8410 O      20044 WAT       0.1958
  20045 WAT        21.9090   10.3440   28.0910 O      20045 WAT       0.1816
  20046 WAT        21.9090   10.3440   28.3410 O      20046 WAT       0.1091
  20047 WAT        21.9090   10.5940   27.5910 O      20047 WAT       0.0980
  20048 WAT        21.9090   10.5940   27.8410 O      20048 WAT       0.1448
  20049 WAT        21.9090   10.5940   28.0910 O      20049 WAT       0.1390
  20050 WAT        21.9090   10.5940   28.3410 O      20050 WAT       0.0866
  20051 WAT        21.9090   10.8440   27.5910 O      20051 WAT       0.0567
  20052 WAT        21.9090   10.8440   27.8410 O      20052 WAT       0.0875
  20053 WAT        21.9090   10.8440   28.0910 O      20053 WAT       0.0878
  20054 WAT        21.9090   10.8440   28.3410 O      20054 WAT       0.0575
  20055 WAT        21.9090   11.8440   14.3410 O      20055 WAT       0.0454
  20056 WAT        21.9090   11.8440   14.5910 O      20056 WAT       0.0476
  20057 WAT        21.9090   11.8440   14.8410 O      20057 WAT       0.0468
  20058 WAT        21.9090   12.0940   14.3410 O      20058 WAT       0.0454
  20059 WAT        21.9090   12.0940   14.5910 O      20059 WAT       0.0507
  20060 WAT        21.9090   12.0940   14.8410 O      20060 WAT       0.0510
  20061 WAT        21.9090   12.0940   15.0910 O      20061 WAT       0.0475
  20062 WAT        21.9090   12.3440   14.5910 O      20062 WAT       0.0453
  20063 WAT        21.9090   12.8440   10.0910 O      20063 WAT       0.0452
  20064 WAT        21.9090   12.8440   10.3410 O      20064 WAT       0.0483
  20065 WAT        21.9090   13.0940    9.8410 O      20065 WAT       0.0451
  20066 WAT        21.9090   13.0940   10.0910 O      20066 WAT       0.0519
  20067 WAT        21.9090   13.0940   10.3410 O      20067 WAT       0.0497
  20068 WAT        21.9090   13.3440    9.8410 O      20068 WAT       0.0515
  20069 WAT        21.9090   13.3440   10.0910 O      20069 WAT       0.0517
  20070 WAT        21.9090   13.5940    9.5910 O      20070 WAT       0.0503
  20071 WAT        21.9090   13.5940    9.8410 O      20071 WAT       0.0524
  20072 WAT        21.9090   13.8440    9.3410 O      20072 WAT       0.0495
  20073 WAT        21.9090   13.8440    9.5910 O      20073 WAT       0.0547
  20074 WAT        21.9090   13.8440    9.8410 O      20074 WAT       0.0476
  20075 WAT        21.9090   14.0940    9.0910 O      20075 WAT       0.0463
  20076 WAT        21.9090   14.0940    9.3410 O      20076 WAT       0.0568
  20077 WAT        21.9090   14.0940    9.5910 O      20077 WAT       0.0544
  20078 WAT        21.9090   14.3440    9.0910 O      20078 WAT       0.0544
  20079 WAT        21.9090   14.3440    9.3410 O      20079 WAT       0.0603
  20080 WAT        21.9090   14.3440    9.5910 O      20080 WAT       0.0501
  20081 WAT        21.9090   14.5940    9.0910 O      20081 WAT       0.0588
  20082 WAT        21.9090   14.5940    9.3410 O      20082 WAT       0.0589
  20083 WAT        21.9090   14.8440    8.8410 O      20083 WAT       0.0484
  20084 WAT        21.9090   14.8440    9.0910 O      20084 WAT       0.0586
  20085 WAT        21.9090   14.8440    9.3410 O      20085 WAT       0.0534
  20086 WAT        21.9090   15.0940    8.8410 O      20086 WAT       0.0489
  20087 WAT        21.9090   15.0940    9.0910 O      20087 WAT       0.0548
  20088 WAT        21.9090   15.0940    9.3410 O      20088 WAT       0.0458
  20089 WAT        21.9090   15.3440    8.8410 O      20089 WAT       0.0470
  20090 WAT        21.9090   15.3440    9.0910 O      20090 WAT       0.0490
  20091 WAT        21.9090   15.3440   20.0910 O      20091 WAT       0.0462
  20092 WAT        21.9090   15.5940   19.5910 O      20092 WAT       0.0459
  20093 WAT        21.9090   15.5940   19.8410 O      20093 WAT       0.0890
  20094 WAT        21.9090   15.5940   20.0910 O      20094 WAT       0.1074
  20095 WAT        21.9090   15.5940   20.3410 O      20095 WAT       0.0816
  20096 WAT        21.9090   15.8440   19.5910 O      20096 WAT       0.0662
  20097 WAT        21.9090   15.8440   19.8410 O      20097 WAT       0.1320
  20098 WAT        21.9090   15.8440   20.0910 O      20098 WAT       0.1649
  20099 WAT        21.9090   15.8440   20.3410 O      20099 WAT       0.1304
  20100 WAT        21.9090   15.8440   20.5910 O      20100 WAT       0.0650
  20101 WAT        21.9090   16.0940   19.5910 O      20101 WAT       0.0633
  20102 WAT        21.9090   16.0940   19.8410 O      20102 WAT       0.1308
  20103 WAT        21.9090   16.0940   20.0910 O      20103 WAT       0.1698
  20104 WAT        21.9090   16.0940   20.3410 O      20104 WAT       0.1396
  20105 WAT        21.9090   16.0940   20.5910 O      20105 WAT       0.0727
  20106 WAT        21.9090   16.3440   19.8410 O      20106 WAT       0.0870
  20107 WAT        21.9090   16.3440   20.0910 O      20107 WAT       0.1174
  20108 WAT        21.9090   16.3440   20.3410 O      20108 WAT       0.1004
  20109 WAT        21.9090   16.3440   20.5910 O      20109 WAT       0.0542
  20110 WAT        21.9090   16.5940    7.0910 O      20110 WAT       0.0473
  20111 WAT        21.9090   16.5940    7.3410 O      20111 WAT       0.0528
  20112 WAT        21.9090   16.5940    7.5910 O      20112 WAT       0.0527
  20113 WAT        21.9090   16.5940    7.8410 O      20113 WAT       0.0482
  20114 WAT        21.9090   16.5940   20.0910 O      20114 WAT       0.0541
  20115 WAT        21.9090   16.5940   20.3410 O      20115 WAT       0.0479
  20116 WAT        21.9090   16.8440    6.8410 O      20116 WAT       0.0511
  20117 WAT        21.9090   16.8440    7.0910 O      20117 WAT       0.0585
  20118 WAT        21.9090   16.8440    7.3410 O      20118 WAT       0.0604
  20119 WAT        21.9090   16.8440    7.5910 O      20119 WAT       0.0552
  20120 WAT        21.9090   16.8440    7.8410 O      20120 WAT       0.0456
  20121 WAT        21.9090   17.0940    6.5910 O      20121 WAT       0.0512
  20122 WAT        21.9090   17.0940    6.8410 O      20122 WAT       0.0574
  20123 WAT        21.9090   17.0940    7.0910 O      20123 WAT       0.0600
  20124 WAT        21.9090   17.0940    7.3410 O      20124 WAT       0.0561
  20125 WAT        21.9090   17.0940    7.5910 O      20125 WAT       0.0462
  20126 WAT        21.9090   17.3440    6.3410 O      20126 WAT       0.0459
  20127 WAT        21.9090   17.3440    6.5910 O      20127 WAT       0.0523
  20128 WAT        21.9090   17.3440    6.8410 O      20128 WAT       0.0543
  20129 WAT        21.9090   17.3440    7.0910 O      20129 WAT       0.0508
  20130 WAT        21.9090   25.8440   21.0910 O      20130 WAT       0.0473
  20131 WAT        21.9090   25.8440   21.3410 O      20131 WAT       0.0522
  20132 WAT        21.9090   25.8440   21.5910 O      20132 WAT       0.0480
  20133 WAT        21.9090   26.0940   20.5910 O      20133 WAT       0.0475
  20134 WAT        21.9090   26.0940   20.8410 O      20134 WAT       0.0746
  20135 WAT        21.9090   26.0940   21.0910 O      20135 WAT       0.0947
  20136 WAT        21.9090   26.0940   21.3410 O      20136 WAT       0.0982
  20137 WAT        21.9090   26.0940   21.5910 O      20137 WAT       0.0864
  20138 WAT        21.9090   26.0940   21.8410 O      20138 WAT       0.0669
  20139 WAT        21.9090   26.0940   22.0910 O      20139 WAT       0.0455
  20140 WAT        21.9090   26.3440   20.5910 O      20140 WAT       0.0765
  20141 WAT        21.9090   26.3440   20.8410 O      20141 WAT       0.1119
  20142 WAT        21.9090   26.3440   21.0910 O      20142 WAT       0.1338
  20143 WAT        21.9090   26.3440   21.3410 O      20143 WAT       0.1328
  20144 WAT        21.9090   26.3440   21.5910 O      20144 WAT       0.1142
  20145 WAT        21.9090   26.3440   21.8410 O      20145 WAT       0.0892
  20146 WAT        21.9090   26.3440   22.0910 O      20146 WAT       0.0632
  20147 WAT        21.9090   26.5940   20.3410 O      20147 WAT       0.0542
  20148 WAT        21.9090   26.5940   20.5910 O      20148 WAT       0.0872
  20149 WAT        21.9090   26.5940   20.8410 O      20149 WAT       0.1173
  20150 WAT        21.9090   26.5940   21.0910 O      20150 WAT       0.1318
  20151 WAT        21.9090   26.5940   21.3410 O      20151 WAT       0.1252
  20152 WAT        21.9090   26.5940   21.5910 O      20152 WAT       0.1059
  20153 WAT        21.9090   26.5940   21.8410 O      20153 WAT       0.0843
  20154 WAT        21.9090   26.5940   22.0910 O      20154 WAT       0.0628
  20155 WAT        21.9090   26.8440   20.3410 O      20155 WAT       0.0503
  20156 WAT        21.9090   26.8440   20.5910 O      20156 WAT       0.0726
  20157 WAT        21.9090   26.8440   20.8410 O      20157 WAT       0.0881
  20158 WAT        21.9090   26.8440   21.0910 O      20158 WAT       0.0912
  20159 WAT        21.9090   26.8440   21.3410 O      20159 WAT       0.0820
  20160 WAT        21.9090   26.8440   21.5910 O      20160 WAT       0.0678
  20161 WAT        21.9090   26.8440   21.8410 O      20161 WAT       0.0550
  20162 WAT        21.9090   27.0940   20.5910 O      20162 WAT       0.0451
  20163 WAT        21.9090   27.0940   20.8410 O      20163 WAT       0.0488
  20164 WAT        21.9090   27.0940   21.0910 O      20164 WAT       0.0454
  20165 WAT        21.9090   27.5940   18.3410 O      20165 WAT       0.0553
  20166 WAT        21.9090   27.5940   18.5910 O      20166 WAT       0.0476
  20167 WAT        21.9090   27.8440   17.8410 O      20167 WAT       0.0503
  20168 WAT        21.9090   27.8440   18.0910 O      20168 WAT       0.0903
  20169 WAT        21.9090   27.8440   18.3410 O      20169 WAT       0.1086
  20170 WAT        21.9090   27.8440   18.5910 O      20170 WAT       0.0890
  20171 WAT        21.9090   27.8440   18.8410 O      20171 WAT       0.0499
  20172 WAT        21.9090   28.0940   17.8410 O      20172 WAT       0.0780
  20173 WAT        21.9090   28.0940   18.0910 O      20173 WAT       0.1343
  20174 WAT        21.9090   28.0940   18.3410 O      20174 WAT       0.1557
  20175 WAT        21.9090   28.0940   18.5910 O      20175 WAT       0.1233
  20176 WAT        21.9090   28.0940   18.8410 O      20176 WAT       0.0673
  20177 WAT        21.9090   28.3440   17.8410 O      20177 WAT       0.0838
  20178 WAT        21.9090   28.3440   18.0910 O      20178 WAT       0.1398
  20179 WAT        21.9090   28.3440   18.3410 O      20179 WAT       0.1574
  20180 WAT        21.9090   28.3440   18.5910 O      20180 WAT       0.1215
  20181 WAT        21.9090   28.3440   18.8410 O      20181 WAT       0.0649
  20182 WAT        21.9090   28.5940   17.8410 O      20182 WAT       0.0610
  20183 WAT        21.9090   28.5940   18.0910 O      20183 WAT       0.0990
  20184 WAT        21.9090   28.5940   18.3410 O      20184 WAT       0.1088
  20185 WAT        21.9090   28.5940   18.5910 O      20185 WAT       0.0820
  20186 WAT        21.9090   28.8440   18.0910 O      20186 WAT       0.0465
  20187 WAT        21.9090   28.8440   18.3410 O      20187 WAT       0.0499
  20188 WAT        21.9090   34.0940   11.0910 O      20188 WAT       0.0482
  20189 WAT        21.9090   34.0940   28.3410 O      20189 WAT       0.0517
  20190 WAT        21.9090   34.0940   28.5910 O      20190 WAT       0.0483
  20191 WAT        21.9090   34.3440   27.8410 O      20191 WAT       0.0478
  20192 WAT        21.9090   34.3440   28.0910 O      20192 WAT       0.0811
  20193 WAT        21.9090   34.3440   28.3410 O      20193 WAT       0.1019
  20194 WAT        21.9090   34.3440   28.5910 O      20194 WAT       0.0971
  20195 WAT        21.9090   34.3440   28.8410 O      20195 WAT       0.0720
  20196 WAT        21.9090   34.5940   12.8410 O      20196 WAT       0.0476
  20197 WAT        21.9090   34.5940   27.8410 O      20197 WAT       0.0636
  20198 WAT        21.9090   34.5940   28.0910 O      20198 WAT       0.1092
  20199 WAT        21.9090   34.5940   28.3410 O      20199 WAT       0.1399
  20200 WAT        21.9090   34.5940   28.5910 O      20200 WAT       0.1368
  20201 WAT        21.9090   34.5940   28.8410 O      20201 WAT       0.1047
  20202 WAT        21.9090   34.5940   29.0910 O      20202 WAT       0.0639
  20203 WAT        21.9090   34.8440   12.5910 O      20203 WAT       0.0605
  20204 WAT        21.9090   34.8440   12.8410 O      20204 WAT       0.0822
  20205 WAT        21.9090   34.8440   13.0910 O      20205 WAT       0.0810
  20206 WAT        21.9090   34.8440   13.3410 O      20206 WAT       0.0586
  20207 WAT        21.9090   34.8440   27.8410 O      20207 WAT       0.0576
  20208 WAT        21.9090   34.8440   28.0910 O      20208 WAT       0.1014
  20209 WAT        21.9090   34.8440   28.3410 O      20209 WAT       0.1338
  20210 WAT        21.9090   34.8440   28.5910 O      20210 WAT       0.1354
  20211 WAT        21.9090   34.8440   28.8410 O      20211 WAT       0.1076
  20212 WAT        21.9090   34.8440   29.0910 O      20212 WAT       0.0683
  20213 WAT        21.9090   35.0940   12.5910 O      20213 WAT       0.0628
  20214 WAT        21.9090   35.0940   12.8410 O      20214 WAT       0.0901
  20215 WAT        21.9090   35.0940   13.0910 O      20215 WAT       0.0939
  20216 WAT        21.9090   35.0940   13.3410 O      20216 WAT       0.0722
  20217 WAT        21.9090   35.0940   28.0910 O      20217 WAT       0.0643
  20218 WAT        21.9090   35.0940   28.3410 O      20218 WAT       0.0885
  20219 WAT        21.9090   35.0940   28.5910 O      20219 WAT       0.0938
  20220 WAT        21.9090   35.0940   28.8410 O      20220 WAT       0.0782
  20221 WAT        21.9090   35.0940   29.0910 O      20221 WAT       0.0519
  20222 WAT        21.9090   35.3440   12.8410 O      20222 WAT       0.0625
  20223 WAT        21.9090   35.3440   13.0910 O      20223 WAT       0.0685
  20224 WAT        21.9090   35.3440   13.3410 O      20224 WAT       0.0554
  20225 WAT        22.1590    8.3440   19.3410 O      20225 WAT       0.0478
  20226 WAT        22.1590    8.3440   19.5910 O      20226 WAT       0.0600
  20227 WAT        22.1590    8.3440   19.8410 O      20227 WAT       0.0606
  20228 WAT        22.1590    8.3440   20.0910 O      20228 WAT       0.0492
  20229 WAT        22.1590    8.3440   23.0910 O      20229 WAT       0.0452
  20230 WAT        22.1590    8.3440   25.5910 O      20230 WAT       0.0451
  20231 WAT        22.1590    8.3440   25.8410 O      20231 WAT       0.0687
  20232 WAT        22.1590    8.3440   26.0910 O      20232 WAT       0.0813
  20233 WAT        22.1590    8.3440   26.3410 O      20233 WAT       0.0729
  20234 WAT        22.1590    8.3440   26.5910 O      20234 WAT       0.0496
  20235 WAT        22.1590    8.5940   16.3410 O      20235 WAT       0.0459
  20236 WAT        22.1590    8.5940   16.5910 O      20236 WAT       0.0477
  20237 WAT        22.1590    8.5940   16.8410 O      20237 WAT       0.0483
  20238 WAT        22.1590    8.5940   17.0910 O      20238 WAT       0.0455
  20239 WAT        22.1590    8.5940   19.0910 O      20239 WAT       0.0461
  20240 WAT        22.1590    8.5940   19.3410 O      20240 WAT       0.0724
  20241 WAT        22.1590    8.5940   19.5910 O      20241 WAT       0.0943
  20242 WAT        22.1590    8.5940   19.8410 O      20242 WAT       0.0992
  20243 WAT        22.1590    8.5940   20.0910 O      20243 WAT       0.0836
  20244 WAT        22.1590    8.5940   20.3410 O      20244 WAT       0.0566
  20245 WAT        22.1590    8.5940   25.8410 O      20245 WAT       0.0656
  20246 WAT        22.1590    8.5940   26.0910 O      20246 WAT       0.0761
  20247 WAT        22.1590    8.5940   26.3410 O      20247 WAT       0.0665
  20248 WAT        22.1590    8.8440   15.8410 O      20248 WAT       0.0519
  20249 WAT        22.1590    8.8440   16.0910 O      20249 WAT       0.0640
  20250 WAT        22.1590    8.8440   16.3410 O      20250 WAT       0.0738
  20251 WAT        22.1590    8.8440   16.5910 O      20251 WAT       0.0812
  20252 WAT        22.1590    8.8440   16.8410 O      20252 WAT       0.0832
  20253 WAT        22.1590    8.8440   17.0910 O      20253 WAT       0.0763
  20254 WAT        22.1590    8.8440   17.3410 O      20254 WAT       0.0604
  20255 WAT        22.1590    8.8440   19.0910 O      20255 WAT       0.0497
  20256 WAT        22.1590    8.8440   19.3410 O      20256 WAT       0.0814
  20257 WAT        22.1590    8.8440   19.5910 O      20257 WAT       0.1108
  20258 WAT        22.1590    8.8440   19.8410 O      20258 WAT       0.1217
  20259 WAT        22.1590    8.8440   20.0910 O      20259 WAT       0.1067
  20260 WAT        22.1590    8.8440   20.3410 O      20260 WAT       0.0749
  20261 WAT        22.1590    8.8440   25.8410 O      20261 WAT       0.0469
  20262 WAT        22.1590    8.8440   26.0910 O      20262 WAT       0.0540
  20263 WAT        22.1590    8.8440   26.3410 O      20263 WAT       0.0464
  20264 WAT        22.1590    9.0940   15.8410 O      20264 WAT       0.0540
  20265 WAT        22.1590    9.0940   16.0910 O      20265 WAT       0.0730
  20266 WAT        22.1590    9.0940   16.3410 O      20266 WAT       0.0917
  20267 WAT        22.1590    9.0940   16.5910 O      20267 WAT       0.1072
  20268 WAT        22.1590    9.0940   16.8410 O      20268 WAT       0.1131
  20269 WAT        22.1590    9.0940   17.0910 O      20269 WAT       0.1031
  20270 WAT        22.1590    9.0940   17.3410 O      20270 WAT       0.0787
  20271 WAT        22.1590    9.0940   17.5910 O      20271 WAT       0.0501
  20272 WAT        22.1590    9.0940   19.3410 O      20272 WAT       0.0678
  20273 WAT        22.1590    9.0940   19.5910 O      20273 WAT       0.0971
  20274 WAT        22.1590    9.0940   19.8410 O      20274 WAT       0.1117
  20275 WAT        22.1590    9.0940   20.0910 O      20275 WAT       0.1020
  20276 WAT        22.1590    9.0940   20.3410 O      20276 WAT       0.0742
  20277 WAT        22.1590    9.0940   27.5910 O      20277 WAT       0.0533
  20278 WAT        22.1590    9.0940   27.8410 O      20278 WAT       0.0730
  20279 WAT        22.1590    9.0940   28.0910 O      20279 WAT       0.0664
  20280 WAT        22.1590    9.3440   16.0910 O      20280 WAT       0.0627
  20281 WAT        22.1590    9.3440   16.3410 O      20281 WAT       0.0852
  20282 WAT        22.1590    9.3440   16.5910 O      20282 WAT       0.1064
  20283 WAT        22.1590    9.3440   16.8410 O      20283 WAT       0.1170
  20284 WAT        22.1590    9.3440   17.0910 O      20284 WAT       0.1082
  20285 WAT        22.1590    9.3440   17.3410 O      20285 WAT       0.0818
  20286 WAT        22.1590    9.3440   17.5910 O      20286 WAT       0.0505
  20287 WAT        22.1590    9.3440   19.5910 O      20287 WAT       0.0627
  20288 WAT        22.1590    9.3440   19.8410 O      20288 WAT       0.0758
  20289 WAT        22.1590    9.3440   20.0910 O      20289 WAT       0.0723
  20290 WAT        22.1590    9.3440   20.3410 O      20290 WAT       0.0546
  20291 WAT        22.1590    9.3440   27.3410 O      20291 WAT       0.0519
  20292 WAT        22.1590    9.3440   27.5910 O      20292 WAT       0.1057
  20293 WAT        22.1590    9.3440   27.8410 O      20293 WAT       0.1418
  20294 WAT        22.1590    9.3440   28.0910 O      20294 WAT       0.1253
  20295 WAT        22.1590    9.3440   28.3410 O      20295 WAT       0.0728
  20296 WAT        22.1590    9.5940   16.3410 O      20296 WAT       0.0610
  20297 WAT        22.1590    9.5940   16.5910 O      20297 WAT       0.0807
  20298 WAT        22.1590    9.5940   16.8410 O      20298 WAT       0.0930
  20299 WAT        22.1590    9.5940   17.0910 O      20299 WAT       0.0888
  20300 WAT        22.1590    9.5940   17.3410 O      20300 WAT       0.0680
  20301 WAT        22.1590    9.5940   27.3410 O      20301 WAT       0.0827
  20302 WAT        22.1590    9.5940   27.5910 O      20302 WAT       0.1682
  20303 WAT        22.1590    9.5940   27.8410 O      20303 WAT       0.2246
  20304 WAT        22.1590    9.5940   28.0910 O      20304 WAT       0.1965
  20305 WAT        22.1590    9.5940   28.3410 O      20305 WAT       0.1124
  20306 WAT        22.1590    9.8440   16.5910 O      20306 WAT       0.0505
  20307 WAT        22.1590    9.8440   16.8410 O      20307 WAT       0.0602
  20308 WAT        22.1590    9.8440   17.0910 O      20308 WAT       0.0593
  20309 WAT        22.1590    9.8440   17.3410 O      20309 WAT       0.0466
  20310 WAT        22.1590    9.8440   27.3410 O      20310 WAT       0.1058
  20311 WAT        22.1590    9.8440   27.5910 O      20311 WAT       0.2172
  20312 WAT        22.1590    9.8440   27.8410 O      20312 WAT       0.2914
  20313 WAT        22.1590    9.8440   28.0910 O      20313 WAT       0.2552
  20314 WAT        22.1590    9.8440   28.3410 O      20314 WAT       0.1455
  20315 WAT        22.1590    9.8440   28.5910 O      20315 WAT       0.0531
  20316 WAT        22.1590   10.0940   27.3410 O      20316 WAT       0.1109
  20317 WAT        22.1590   10.0940   27.5910 O      20317 WAT       0.2314
  20318 WAT        22.1590   10.0940   27.8410 O      20318 WAT       0.3142
  20319 WAT        22.1590   10.0940   28.0910 O      20319 WAT       0.2775
  20320 WAT        22.1590   10.0940   28.3410 O      20320 WAT       0.1588
  20321 WAT        22.1590   10.0940   28.5910 O      20321 WAT       0.0580
  20322 WAT        22.1590   10.3440   27.3410 O      20322 WAT       0.0965
  20323 WAT        22.1590   10.3440   27.5910 O      20323 WAT       0.2055
  20324 WAT        22.1590   10.3440   27.8410 O      20324 WAT       0.2841
  20325 WAT        22.1590   10.3440   28.0910 O      20325 WAT       0.2547
  20326 WAT        22.1590   10.3440   28.3410 O      20326 WAT       0.1475
  20327 WAT        22.1590   10.3440   28.5910 O      20327 WAT       0.0544
  20328 WAT        22.1590   10.5940   27.3410 O      20328 WAT       0.0691
  20329 WAT        22.1590   10.5940   27.5910 O      20329 WAT       0.1513
  20330 WAT        22.1590   10.5940   27.8410 O      20330 WAT       0.2142
  20331 WAT        22.1590   10.5940   28.0910 O      20331 WAT       0.1965
  20332 WAT        22.1590   10.5940   28.3410 O      20332 WAT       0.1163
  20333 WAT        22.1590   10.8440   27.5910 O      20333 WAT       0.0900
  20334 WAT        22.1590   10.8440   27.8410 O      20334 WAT       0.1313
  20335 WAT        22.1590   10.8440   28.0910 O      20335 WAT       0.1242
  20336 WAT        22.1590   10.8440   28.3410 O      20336 WAT       0.0761
  20337 WAT        22.1590   11.0940   15.0910 O      20337 WAT       0.0472
  20338 WAT        22.1590   11.0940   15.3410 O      20338 WAT       0.0506
  20339 WAT        22.1590   11.0940   15.5910 O      20339 WAT       0.0495
  20340 WAT        22.1590   11.0940   27.8410 O      20340 WAT       0.0631
  20341 WAT        22.1590   11.0940   28.0910 O      20341 WAT       0.0621
  20342 WAT        22.1590   11.3440   14.5910 O      20342 WAT       0.0478
  20343 WAT        22.1590   11.3440   14.8410 O      20343 WAT       0.0534
  20344 WAT        22.1590   11.3440   15.0910 O      20344 WAT       0.0596
  20345 WAT        22.1590   11.3440   15.3410 O      20345 WAT       0.0637
  20346 WAT        22.1590   11.3440   15.5910 O      20346 WAT       0.0616
  20347 WAT        22.1590   11.3440   15.8410 O      20347 WAT       0.0515
  20348 WAT        22.1590   11.5940   14.3410 O      20348 WAT       0.0505
  20349 WAT        22.1590   11.5940   14.5910 O      20349 WAT       0.0588
  20350 WAT        22.1590   11.5940   14.8410 O      20350 WAT       0.0668
  20351 WAT        22.1590   11.5940   15.0910 O      20351 WAT       0.0742
  20352 WAT        22.1590   11.5940   15.3410 O      20352 WAT       0.0779
  20353 WAT        22.1590   11.5940   15.5910 O      20353 WAT       0.0735
  20354 WAT        22.1590   11.5940   15.8410 O      20354 WAT       0.0591
  20355 WAT        22.1590   11.8440   14.3410 O      20355 WAT       0.0554
  20356 WAT        22.1590   11.8440   14.5910 O      20356 WAT       0.0674
  20357 WAT        22.1590   11.8440   14.8410 O      20357 WAT       0.0775
  20358 WAT        22.1590   11.8440   15.0910 O      20358 WAT       0.0850
  20359 WAT        22.1590   11.8440   15.3410 O      20359 WAT       0.0870
  20360 WAT        22.1590   11.8440   15.5910 O      20360 WAT       0.0789
  20361 WAT        22.1590   11.8440   15.8410 O      20361 WAT       0.0604
  20362 WAT        22.1590   12.0940   14.3410 O      20362 WAT       0.0558
  20363 WAT        22.1590   12.0940   14.5910 O      20363 WAT       0.0681
  20364 WAT        22.1590   12.0940   14.8410 O      20364 WAT       0.0774
  20365 WAT        22.1590   12.0940   15.0910 O      20365 WAT       0.0824
  20366 WAT        22.1590   12.0940   15.3410 O      20366 WAT       0.0808
  20367 WAT        22.1590   12.0940   15.5910 O      20367 WAT       0.0698
  20368 WAT        22.1590   12.0940   15.8410 O      20368 WAT       0.0504
  20369 WAT        22.1590   12.3440   14.3410 O      20369 WAT       0.0510
  20370 WAT        22.1590   12.3440   14.5910 O      20370 WAT       0.0585
  20371 WAT        22.1590   12.3440   14.8410 O      20371 WAT       0.0626
  20372 WAT        22.1590   12.3440   15.0910 O      20372 WAT       0.0628
  20373 WAT        22.1590   12.3440   15.3410 O      20373 WAT       0.0579
  20374 WAT        22.1590   12.3440   15.5910 O      20374 WAT       0.0470
  20375 WAT        22.1590   12.5940   10.3410 O      20375 WAT       0.0450
  20376 WAT        22.1590   12.5940   10.5910 O      20376 WAT       0.0487
  20377 WAT        22.1590   12.5940   10.8410 O      20377 WAT       0.0455
  20378 WAT        22.1590   12.8440   10.0910 O      20378 WAT       0.0469
  20379 WAT        22.1590   12.8440   10.3410 O      20379 WAT       0.0543
  20380 WAT        22.1590   12.8440   10.5910 O      20380 WAT       0.0542
  20381 WAT        22.1590   12.8440   10.8410 O      20381 WAT       0.0463
  20382 WAT        22.1590   13.0940    9.8410 O      20382 WAT       0.0453
  20383 WAT        22.1590   13.0940   10.0910 O      20383 WAT       0.0550
  20384 WAT        22.1590   13.0940   10.3410 O      20384 WAT       0.0567
  20385 WAT        22.1590   13.0940   10.5910 O      20385 WAT       0.0494
  20386 WAT        22.1590   13.3440    9.8410 O      20386 WAT       0.0520
  20387 WAT        22.1590   13.3440   10.0910 O      20387 WAT       0.0548
  20388 WAT        22.1590   13.3440   10.3410 O      20388 WAT       0.0479
  20389 WAT        22.1590   13.5940    9.5910 O      20389 WAT       0.0485
  20390 WAT        22.1590   13.5940    9.8410 O      20390 WAT       0.0523
  20391 WAT        22.1590   13.5940   10.0910 O      20391 WAT       0.0456
  20392 WAT        22.1590   13.8440    9.3410 O      20392 WAT       0.0451
  20393 WAT        22.1590   13.8440    9.5910 O      20393 WAT       0.0513
  20394 WAT        22.1590   13.8440    9.8410 O      20394 WAT       0.0462
  20395 WAT        22.1590   14.0940    9.3410 O      20395 WAT       0.0508
  20396 WAT        22.1590   14.0940    9.5910 O      20396 WAT       0.0494
  20397 WAT        22.1590   14.3440    9.0910 O      20397 WAT       0.0485
  20398 WAT        22.1590   14.3440    9.3410 O      20398 WAT       0.0536
  20399 WAT        22.1590   14.5940    9.0910 O      20399 WAT       0.0541
  20400 WAT        22.1590   14.5940    9.3410 O      20400 WAT       0.0535
  20401 WAT        22.1590   14.8440    8.8410 O      20401 WAT       0.0481
  20402 WAT        22.1590   14.8440    9.0910 O      20402 WAT       0.0575
  20403 WAT        22.1590   14.8440    9.3410 O      20403 WAT       0.0516
  20404 WAT        22.1590   15.0940    8.8410 O      20404 WAT       0.0530
  20405 WAT        22.1590   15.0940    9.0910 O      20405 WAT       0.0587
  20406 WAT        22.1590   15.0940    9.3410 O      20406 WAT       0.0485
  20407 WAT        22.1590   15.3440    8.8410 O      20407 WAT       0.0561
  20408 WAT        22.1590   15.3440    9.0910 O      20408 WAT       0.0580
  20409 WAT        22.1590   15.3440   19.5910 O      20409 WAT       0.0539
  20410 WAT        22.1590   15.3440   19.8410 O      20410 WAT       0.0958
  20411 WAT        22.1590   15.3440   20.0910 O      20411 WAT       0.1063
  20412 WAT        22.1590   15.3440   20.3410 O      20412 WAT       0.0741
  20413 WAT        22.1590   15.5940    8.5910 O      20413 WAT       0.0477
  20414 WAT        22.1590   15.5940    8.8410 O      20414 WAT       0.0574
  20415 WAT        22.1590   15.5940    9.0910 O      20415 WAT       0.0554
  20416 WAT        22.1590   15.5940   19.5910 O      20416 WAT       0.1132
  20417 WAT        22.1590   15.5940   19.8410 O      20417 WAT       0.2057
  20418 WAT        22.1590   15.5940   20.0910 O      20418 WAT       0.2359
  20419 WAT        22.1590   15.5940   20.3410 O      20419 WAT       0.1712
  20420 WAT        22.1590   15.5940   20.5910 O      20420 WAT       0.0782
  20421 WAT        22.1590   15.8440    8.5910 O      20421 WAT       0.0516
  20422 WAT        22.1590   15.8440    8.8410 O      20422 WAT       0.0572
  20423 WAT        22.1590   15.8440    9.0910 O      20423 WAT       0.0513
  20424 WAT        22.1590   15.8440   19.3410 O      20424 WAT       0.0526
  20425 WAT        22.1590   15.8440   19.5910 O      20425 WAT       0.1586
  20426 WAT        22.1590   15.8440   19.8410 O      20426 WAT       0.2974
  20427 WAT        22.1590   15.8440   20.0910 O      20427 WAT       0.3534
  20428 WAT        22.1590   15.8440   20.3410 O      20428 WAT       0.2664
  20429 WAT        22.1590   15.8440   20.5910 O      20429 WAT       0.1272
  20430 WAT        22.1590   16.0940    8.3410 O      20430 WAT       0.0461
  20431 WAT        22.1590   16.0940    8.5910 O      20431 WAT       0.0534
  20432 WAT        22.1590   16.0940    8.8410 O      20432 WAT       0.0543
  20433 WAT        22.1590   16.0940    9.0910 O      20433 WAT       0.0454
  20434 WAT        22.1590   16.0940   19.3410 O      20434 WAT       0.0481
  20435 WAT        22.1590   16.0940   19.5910 O      20435 WAT       0.1503
  20436 WAT        22.1590   16.0940   19.8410 O      20436 WAT       0.2921
  20437 WAT        22.1590   16.0940   20.0910 O      20437 WAT       0.3603
  20438 WAT        22.1590   16.0940   20.3410 O      20438 WAT       0.2822
  20439 WAT        22.1590   16.0940   20.5910 O      20439 WAT       0.1404
  20440 WAT        22.1590   16.3440    8.3410 O      20440 WAT       0.0472
  20441 WAT        22.1590   16.3440    8.5910 O      20441 WAT       0.0498
  20442 WAT        22.1590   16.3440    8.8410 O      20442 WAT       0.0467
  20443 WAT        22.1590   16.3440   19.5910 O      20443 WAT       0.0968
  20444 WAT        22.1590   16.3440   19.8410 O      20444 WAT       0.1955
  20445 WAT        22.1590   16.3440   20.0910 O      20445 WAT       0.2503
  20446 WAT        22.1590   16.3440   20.3410 O      20446 WAT       0.2038
  20447 WAT        22.1590   16.3440   20.5910 O      20447 WAT       0.1054
  20448 WAT        22.1590   16.5940   19.8410 O      20448 WAT       0.0887
  20449 WAT        22.1590   16.5940   20.0910 O      20449 WAT       0.1181
  20450 WAT        22.1590   16.5940   20.3410 O      20450 WAT       0.0997
  20451 WAT        22.1590   16.5940   20.5910 O      20451 WAT       0.0531
  20452 WAT        22.1590   16.8440    7.3410 O      20452 WAT       0.0462
  20453 WAT        22.1590   17.0940    3.5910 O      20453 WAT       0.0451
  20454 WAT        22.1590   17.0940    7.0910 O      20454 WAT       0.0458
  20455 WAT        22.1590   25.8440   20.8410 O      20455 WAT       0.0663
  20456 WAT        22.1590   25.8440   21.0910 O      20456 WAT       0.0844
  20457 WAT        22.1590   25.8440   21.3410 O      20457 WAT       0.0871
  20458 WAT        22.1590   25.8440   21.5910 O      20458 WAT       0.0745
  20459 WAT        22.1590   25.8440   21.8410 O      20459 WAT       0.0538
  20460 WAT        22.1590   26.0940   20.3410 O      20460 WAT       0.0481
  20461 WAT        22.1590   26.0940   20.5910 O      20461 WAT       0.0885
  20462 WAT        22.1590   26.0940   20.8410 O      20462 WAT       0.1305
  20463 WAT        22.1590   26.0940   21.0910 O      20463 WAT       0.1545
  20464 WAT        22.1590   26.0940   21.3410 O      20464 WAT       0.1482
  20465 WAT        22.1590   26.0940   21.5910 O      20465 WAT       0.1181
  20466 WAT        22.1590   26.0940   21.8410 O      20466 WAT       0.0808
  20467 WAT        22.1590   26.0940   22.0910 O      20467 WAT       0.0483
  20468 WAT        22.1590   26.3440   20.3410 O      20468 WAT       0.0774
  20469 WAT        22.1590   26.3440   20.5910 O      20469 WAT       0.1325
  20470 WAT        22.1590   26.3440   20.8410 O      20470 WAT       0.1837
  20471 WAT        22.1590   26.3440   21.0910 O      20471 WAT       0.2054
  20472 WAT        22.1590   26.3440   21.3410 O      20472 WAT       0.1870
  20473 WAT        22.1590   26.3440   21.5910 O      20473 WAT       0.1428
  20474 WAT        22.1590   26.3440   21.8410 O      20474 WAT       0.0956
  20475 WAT        22.1590   26.3440   22.0910 O      20475 WAT       0.0575
  20476 WAT        22.1590   26.5940   20.0910 O      20476 WAT       0.0465
  20477 WAT        22.1590   26.5940   20.3410 O      20477 WAT       0.0886
  20478 WAT        22.1590   26.5940   20.5910 O      20478 WAT       0.1399
  20479 WAT        22.1590   26.5940   20.8410 O      20479 WAT       0.1811
  20480 WAT        22.1590   26.5940   21.0910 O      20480 WAT       0.1914
  20481 WAT        22.1590   26.5940   21.3410 O      20481 WAT       0.1665
  20482 WAT        22.1590   26.5940   21.5910 O      20482 WAT       0.1233
  20483 WAT        22.1590   26.5940   21.8410 O      20483 WAT       0.0822
  20484 WAT        22.1590   26.5940   22.0910 O      20484 WAT       0.0509
  20485 WAT        22.1590   26.8440   20.3410 O      20485 WAT       0.0738
  20486 WAT        22.1590   26.8440   20.5910 O      20486 WAT       0.1057
  20487 WAT        22.1590   26.8440   20.8410 O      20487 WAT       0.1255
  20488 WAT        22.1590   26.8440   21.0910 O      20488 WAT       0.1237
  20489 WAT        22.1590   26.8440   21.3410 O      20489 WAT       0.1023
  20490 WAT        22.1590   26.8440   21.5910 O      20490 WAT       0.0735
  20491 WAT        22.1590   26.8440   21.8410 O      20491 WAT       0.0491
  20492 WAT        22.1590   27.0940   20.3410 O      20492 WAT       0.0453
  20493 WAT        22.1590   27.0940   20.5910 O      20493 WAT       0.0585
  20494 WAT        22.1590   27.0940   20.8410 O      20494 WAT       0.0623
  20495 WAT        22.1590   27.0940   21.0910 O      20495 WAT       0.0559
  20496 WAT        22.1590   28.0940   18.0910 O      20496 WAT       0.0539
  20497 WAT        22.1590   28.0940   18.3410 O      20497 WAT       0.0606
  20498 WAT        22.1590   28.0940   18.5910 O      20498 WAT       0.0461
  20499 WAT        22.1590   28.3440   18.0910 O      20499 WAT       0.0578
  20500 WAT        22.1590   28.3440   18.3410 O      20500 WAT       0.0635
  20501 WAT        22.1590   28.3440   18.5910 O      20501 WAT       0.0475
  20502 WAT        22.1590   28.5940   18.3410 O      20502 WAT       0.0464
  20503 WAT        22.1590   34.3440   28.3410 O      20503 WAT       0.0489
  20504 WAT        22.1590   34.5940   12.3410 O      20504 WAT       0.0556
  20505 WAT        22.1590   34.5940   12.5910 O      20505 WAT       0.0871
  20506 WAT        22.1590   34.5940   12.8410 O      20506 WAT       0.1021
  20507 WAT        22.1590   34.5940   13.0910 O      20507 WAT       0.0885
  20508 WAT        22.1590   34.5940   13.3410 O      20508 WAT       0.0572
  20509 WAT        22.1590   34.5940   28.0910 O      20509 WAT       0.0576
  20510 WAT        22.1590   34.5940   28.3410 O      20510 WAT       0.0675
  20511 WAT        22.1590   34.5940   28.5910 O      20511 WAT       0.0615
  20512 WAT        22.1590   34.8440   12.3410 O      20512 WAT       0.0800
  20513 WAT        22.1590   34.8440   12.5910 O      20513 WAT       0.1365
  20514 WAT        22.1590   34.8440   12.8410 O      20514 WAT       0.1723
  20515 WAT        22.1590   34.8440   13.0910 O      20515 WAT       0.1608
  20516 WAT        22.1590   34.8440   13.3410 O      20516 WAT       0.1122
  20517 WAT        22.1590   34.8440   13.5910 O      20517 WAT       0.0602
  20518 WAT        22.1590   34.8440   15.3410 O      20518 WAT       0.0534
  20519 WAT        22.1590   34.8440   15.5910 O      20519 WAT       0.0573
  20520 WAT        22.1590   34.8440   15.8410 O      20520 WAT       0.0522
  20521 WAT        22.1590   34.8440   28.0910 O      20521 WAT       0.0538
  20522 WAT        22.1590   34.8440   28.3410 O      20522 WAT       0.0655
  20523 WAT        22.1590   34.8440   28.5910 O      20523 WAT       0.0629
  20524 WAT        22.1590   34.8440   28.8410 O      20524 WAT       0.0487
  20525 WAT        22.1590   35.0940   12.3410 O      20525 WAT       0.0762
  20526 WAT        22.1590   35.0940   12.5910 O      20526 WAT       0.1393
  20527 WAT        22.1590   35.0940   12.8410 O      20527 WAT       0.1875
  20528 WAT        22.1590   35.0940   13.0910 O      20528 WAT       0.1864
  20529 WAT        22.1590   35.0940   13.3410 O      20529 WAT       0.1387
  20530 WAT        22.1590   35.0940   13.5910 O      20530 WAT       0.0794
  20531 WAT        22.1590   35.0940   15.0910 O      20531 WAT       0.0513
  20532 WAT        22.1590   35.0940   15.3410 O      20532 WAT       0.0617
  20533 WAT        22.1590   35.0940   15.5910 O      20533 WAT       0.0631
  20534 WAT        22.1590   35.0940   15.8410 O      20534 WAT       0.0544
  20535 WAT        22.1590   35.0940   28.5910 O      20535 WAT       0.0458
  20536 WAT        22.1590   35.3440   12.3410 O      20536 WAT       0.0473
  20537 WAT        22.1590   35.3440   12.5910 O      20537 WAT       0.0917
  20538 WAT        22.1590   35.3440   12.8410 O      20538 WAT       0.1304
  20539 WAT        22.1590   35.3440   13.0910 O      20539 WAT       0.1368
  20540 WAT        22.1590   35.3440   13.3410 O      20540 WAT       0.1075
  20541 WAT        22.1590   35.3440   13.5910 O      20541 WAT       0.0648
  20542 WAT        22.4090    8.3440   25.5910 O      20542 WAT       0.0556
  20543 WAT        22.4090    8.3440   25.8410 O      20543 WAT       0.0764
  20544 WAT        22.4090    8.3440   26.0910 O      20544 WAT       0.0836
  20545 WAT        22.4090    8.3440   26.3410 O      20545 WAT       0.0703
  20546 WAT        22.4090    8.3440   26.5910 O      20546 WAT       0.0452
  20547 WAT        22.4090    8.5940   16.5910 O      20547 WAT       0.0466
  20548 WAT        22.4090    8.5940   16.8410 O      20548 WAT       0.0526
  20549 WAT        22.4090    8.5940   17.0910 O      20549 WAT       0.0550
  20550 WAT        22.4090    8.5940   17.3410 O      20550 WAT       0.0504
  20551 WAT        22.4090    8.5940   25.5910 O      20551 WAT       0.0539
  20552 WAT        22.4090    8.5940   25.8410 O      20552 WAT       0.0721
  20553 WAT        22.4090    8.5940   26.0910 O      20553 WAT       0.0761
  20554 WAT        22.4090    8.5940   26.3410 O      20554 WAT       0.0614
  20555 WAT        22.4090    8.8440   16.3410 O      20555 WAT       0.0522
  20556 WAT        22.4090    8.8440   16.5910 O      20556 WAT       0.0636
  20557 WAT        22.4090    8.8440   16.8410 O      20557 WAT       0.0727
  20558 WAT        22.4090    8.8440   17.0910 O      20558 WAT       0.0747
  20559 WAT        22.4090    8.8440   17.3410 O      20559 WAT       0.0659
  20560 WAT        22.4090    8.8440   17.5910 O      20560 WAT       0.0488
  20561 WAT        22.4090    8.8440   25.8410 O      20561 WAT       0.0513
  20562 WAT        22.4090    8.8440   26.0910 O      20562 WAT       0.0527
  20563 WAT        22.4090    9.0940   16.3410 O      20563 WAT       0.0587
  20564 WAT        22.4090    9.0940   16.5910 O      20564 WAT       0.0745
  20565 WAT        22.4090    9.0940   16.8410 O      20565 WAT       0.0861
  20566 WAT        22.4090    9.0940   17.0910 O      20566 WAT       0.0872
  20567 WAT        22.4090    9.0940   17.3410 O      20567 WAT       0.0749
  20568 WAT        22.4090    9.0940   17.5910 O      20568 WAT       0.0536
  20569 WAT        22.4090    9.0940   27.5910 O      20569 WAT       0.0549
  20570 WAT        22.4090    9.0940   27.8410 O      20570 WAT       0.0786
  20571 WAT        22.4090    9.0940   28.0910 O      20571 WAT       0.0753
  20572 WAT        22.4090    9.0940   28.3410 O      20572 WAT       0.0486
  20573 WAT        22.4090    9.3440   16.3410 O      20573 WAT       0.0550
  20574 WAT        22.4090    9.3440   16.5910 O      20574 WAT       0.0721
  20575 WAT        22.4090    9.3440   16.8410 O      20575 WAT       0.0848
  20576 WAT        22.4090    9.3440   17.0910 O      20576 WAT       0.0858
  20577 WAT        22.4090    9.3440   17.3410 O      20577 WAT       0.0729
  20578 WAT        22.4090    9.3440   17.5910 O      20578 WAT       0.0515
  20579 WAT        22.4090    9.3440   27.3410 O      20579 WAT       0.0522
  20580 WAT        22.4090    9.3440   27.5910 O      20580 WAT       0.1084
  20581 WAT        22.4090    9.3440   27.8410 O      20581 WAT       0.1491
  20582 WAT        22.4090    9.3440   28.0910 O      20582 WAT       0.1360
  20583 WAT        22.4090    9.3440   28.3410 O      20583 WAT       0.0824
  20584 WAT        22.4090    9.5940   16.5910 O      20584 WAT       0.0590
  20585 WAT        22.4090    9.5940   16.8410 O      20585 WAT       0.0702
  20586 WAT        22.4090    9.5940   17.0910 O      20586 WAT       0.0717
  20587 WAT        22.4090    9.5940   17.3410 O      20587 WAT       0.0611
  20588 WAT        22.4090    9.5940   27.3410 O      20588 WAT       0.0859
  20589 WAT        22.4090    9.5940   27.5910 O      20589 WAT       0.1760
  20590 WAT        22.4090    9.5940   27.8410 O      20590 WAT       0.2372
  20591 WAT        22.4090    9.5940   28.0910 O      20591 WAT       0.2106
  20592 WAT        22.4090    9.5940   28.3410 O      20592 WAT       0.1229
  20593 WAT        22.4090    9.5940   28.5910 O      20593 WAT       0.0466
  20594 WAT        22.4090    9.8440   16.8410 O      20594 WAT       0.0519
  20595 WAT        22.4090    9.8440   17.0910 O      20595 WAT       0.0528
  20596 WAT        22.4090    9.8440   17.3410 O      20596 WAT       0.0454
  20597 WAT        22.4090    9.8440   27.3410 O      20597 WAT       0.1150
  20598 WAT        22.4090    9.8440   27.5910 O      20598 WAT       0.2349
  20599 WAT        22.4090    9.8440   27.8410 O      20599 WAT       0.3144
  20600 WAT        22.4090    9.8440   28.0910 O      20600 WAT       0.2753
  20601 WAT        22.4090    9.8440   28.3410 O      20601 WAT       0.1573
  20602 WAT        22.4090    9.8440   28.5910 O      20602 WAT       0.0579
  20603 WAT        22.4090   10.0940   27.3410 O      20603 WAT       0.1268
  20604 WAT        22.4090   10.0940   27.5910 O      20604 WAT       0.2601
  20605 WAT        22.4090   10.0940   27.8410 O      20605 WAT       0.3483
  20606 WAT        22.4090   10.0940   28.0910 O      20606 WAT       0.3036
  20607 WAT        22.4090   10.0940   28.3410 O      20607 WAT       0.1715
  20608 WAT        22.4090   10.0940   28.5910 O      20608 WAT       0.0618
  20609 WAT        22.4090   10.3440   27.3410 O      20609 WAT       0.1158
  20610 WAT        22.4090   10.3440   27.5910 O      20610 WAT       0.2400
  20611 WAT        22.4090   10.3440   27.8410 O      20611 WAT       0.3235
  20612 WAT        22.4090   10.3440   28.0910 O      20612 WAT       0.2827
  20613 WAT        22.4090   10.3440   28.3410 O      20613 WAT       0.1594
  20614 WAT        22.4090   10.3440   28.5910 O      20614 WAT       0.0570
  20615 WAT        22.4090   10.5940   15.0910 O      20615 WAT       0.0475
  20616 WAT        22.4090   10.5940   15.3410 O      20616 WAT       0.0550
  20617 WAT        22.4090   10.5940   15.5910 O      20617 WAT       0.0578
  20618 WAT        22.4090   10.5940   15.8410 O      20618 WAT       0.0555
  20619 WAT        22.4090   10.5940   16.0910 O      20619 WAT       0.0489
  20620 WAT        22.4090   10.5940   27.3410 O      20620 WAT       0.0867
  20621 WAT        22.4090   10.5940   27.5910 O      20621 WAT       0.1825
  20622 WAT        22.4090   10.5940   27.8410 O      20622 WAT       0.2491
  20623 WAT        22.4090   10.5940   28.0910 O      20623 WAT       0.2200
  20624 WAT        22.4090   10.5940   28.3410 O      20624 WAT       0.1250
  20625 WAT        22.4090   10.8440   14.8410 O      20625 WAT       0.0486
  20626 WAT        22.4090   10.8440   15.0910 O      20626 WAT       0.0618
  20627 WAT        22.4090   10.8440   15.3410 O      20627 WAT       0.0720
  20628 WAT        22.4090   10.8440   15.5910 O      20628 WAT       0.0754
  20629 WAT        22.4090   10.8440   15.8410 O      20629 WAT       0.0703
  20630 WAT        22.4090   10.8440   16.0910 O      20630 WAT       0.0583
  20631 WAT        22.4090   10.8440   27.3410 O      20631 WAT       0.0518
  20632 WAT        22.4090   10.8440   27.5910 O      20632 WAT       0.1112
  20633 WAT        22.4090   10.8440   27.8410 O      20633 WAT       0.1545
  20634 WAT        22.4090   10.8440   28.0910 O      20634 WAT       0.1390
  20635 WAT        22.4090   10.8440   28.3410 O      20635 WAT       0.0805
  20636 WAT        22.4090   11.0940   14.5910 O      20636 WAT       0.0454
  20637 WAT        22.4090   11.0940   14.8410 O      20637 WAT       0.0604
  20638 WAT        22.4090   11.0940   15.0910 O      20638 WAT       0.0771
  20639 WAT        22.4090   11.0940   15.3410 O      20639 WAT       0.0905
  20640 WAT        22.4090   11.0940   15.5910 O      20640 WAT       0.0944
  20641 WAT        22.4090   11.0940   15.8410 O      20641 WAT       0.0858
  20642 WAT        22.4090   11.0940   16.0910 O      20642 WAT       0.0671
  20643 WAT        22.4090   11.0940   27.5910 O      20643 WAT       0.0523
  20644 WAT        22.4090   11.0940   27.8410 O      20644 WAT       0.0746
  20645 WAT        22.4090   11.0940   28.0910 O      20645 WAT       0.0688
  20646 WAT        22.4090   11.3440   14.5910 O      20646 WAT       0.0551
  20647 WAT        22.4090   11.3440   14.8410 O      20647 WAT       0.0733
  20648 WAT        22.4090   11.3440   15.0910 O      20648 WAT       0.0936
  20649 WAT        22.4090   11.3440   15.3410 O      20649 WAT       0.1097
  20650 WAT        22.4090   11.3440   15.5910 O      20650 WAT       0.1135
  20651 WAT        22.4090   11.3440   15.8410 O      20651 WAT       0.1005
  20652 WAT        22.4090   11.3440   16.0910 O      20652 WAT       0.0743
  20653 WAT        22.4090   11.5940   14.3410 O      20653 WAT       0.0473
  20654 WAT        22.4090   11.5940   14.5910 O      20654 WAT       0.0648
  20655 WAT        22.4090   11.5940   14.8410 O      20655 WAT       0.0861
  20656 WAT        22.4090   11.5940   15.0910 O      20656 WAT       0.1087
  20657 WAT        22.4090   11.5940   15.3410 O      20657 WAT       0.1259
  20658 WAT        22.4090   11.5940   15.5910 O      20658 WAT       0.1279
  20659 WAT        22.4090   11.5940   15.8410 O      20659 WAT       0.1096
  20660 WAT        22.4090   11.5940   16.0910 O      20660 WAT       0.0766
  20661 WAT        22.4090   11.8440   14.3410 O      20661 WAT       0.0521
  20662 WAT        22.4090   11.8440   14.5910 O      20662 WAT       0.0710
  20663 WAT        22.4090   11.8440   14.8410 O      20663 WAT       0.0929
  20664 WAT        22.4090   11.8440   15.0910 O      20664 WAT       0.1149
  20665 WAT        22.4090   11.8440   15.3410 O      20665 WAT       0.1299
  20666 WAT        22.4090   11.8440   15.5910 O      20666 WAT       0.1280
  20667 WAT        22.4090   11.8440   15.8410 O      20667 WAT       0.1052
  20668 WAT        22.4090   11.8440   16.0910 O      20668 WAT       0.0696
  20669 WAT        22.4090   12.0940   14.3410 O      20669 WAT       0.0542
  20670 WAT        22.4090   12.0940   14.5910 O      20670 WAT       0.0694
  20671 WAT        22.4090   12.0940   14.8410 O      20671 WAT       0.0865
  20672 WAT        22.4090   12.0940   15.0910 O      20672 WAT       0.1026
  20673 WAT        22.4090   12.0940   15.3410 O      20673 WAT       0.1116
  20674 WAT        22.4090   12.0940   15.5910 O      20674 WAT       0.1054
  20675 WAT        22.4090   12.0940   15.8410 O      20675 WAT       0.0825
  20676 WAT        22.4090   12.0940   16.0910 O      20676 WAT       0.0516
  20677 WAT        22.4090   12.3440   12.5910 O      20677 WAT       0.0511
  20678 WAT        22.4090   12.3440   12.8410 O      20678 WAT       0.0564
  20679 WAT        22.4090   12.3440   13.0910 O      20679 WAT       0.0574
  20680 WAT        22.4090   12.3440   13.3410 O      20680 WAT       0.0536
  20681 WAT        22.4090   12.3440   13.5910 O      20681 WAT       0.0485
  20682 WAT        22.4090   12.3440   13.8410 O      20682 WAT       0.0459
  20683 WAT        22.4090   12.3440   14.0910 O      20683 WAT       0.0476
  20684 WAT        22.4090   12.3440   14.3410 O      20684 WAT       0.0523
  20685 WAT        22.4090   12.3440   14.5910 O      20685 WAT       0.0587
  20686 WAT        22.4090   12.3440   14.8410 O      20686 WAT       0.0661
  20687 WAT        22.4090   12.3440   15.0910 O      20687 WAT       0.0725
  20688 WAT        22.4090   12.3440   15.3410 O      20688 WAT       0.0742
  20689 WAT        22.4090   12.3440   15.5910 O      20689 WAT       0.0663
  20690 WAT        22.4090   12.3440   15.8410 O      20690 WAT       0.0490
  20691 WAT        22.4090   12.5940   10.5910 O      20691 WAT       0.0521
  20692 WAT        22.4090   12.5940   10.8410 O      20692 WAT       0.0535
  20693 WAT        22.4090   12.5940   11.0910 O      20693 WAT       0.0489
  20694 WAT        22.4090   12.5940   12.3410 O      20694 WAT       0.0479
  20695 WAT        22.4090   12.5940   12.5910 O      20695 WAT       0.0574
  20696 WAT        22.4090   12.5940   12.8410 O      20696 WAT       0.0661
  20697 WAT        22.4090   12.5940   13.0910 O      20697 WAT       0.0696
  20698 WAT        22.4090   12.5940   13.3410 O      20698 WAT       0.0663
  20699 WAT        22.4090   12.5940   13.5910 O      20699 WAT       0.0589
  20700 WAT        22.4090   12.5940   13.8410 O      20700 WAT       0.0518
  20701 WAT        22.4090   12.5940   14.0910 O      20701 WAT       0.0468
  20702 WAT        22.4090   12.8440   10.0910 O      20702 WAT       0.0452
  20703 WAT        22.4090   12.8440   10.3410 O      20703 WAT       0.0561
  20704 WAT        22.4090   12.8440   10.5910 O      20704 WAT       0.0608
  20705 WAT        22.4090   12.8440   10.8410 O      20705 WAT       0.0573
  20706 WAT        22.4090   12.8440   11.0910 O      20706 WAT       0.0478
  20707 WAT        22.4090   12.8440   12.5910 O      20707 WAT       0.0461
  20708 WAT        22.4090   12.8440   12.8410 O      20708 WAT       0.0554
  20709 WAT        22.4090   12.8440   13.0910 O      20709 WAT       0.0606
  20710 WAT        22.4090   12.8440   13.3410 O      20710 WAT       0.0592
  20711 WAT        22.4090   12.8440   13.5910 O      20711 WAT       0.0523
  20712 WAT        22.4090   13.0940   10.0910 O      20712 WAT       0.0542
  20713 WAT        22.4090   13.0940   10.3410 O      20713 WAT       0.0597
  20714 WAT        22.4090   13.0940   10.5910 O      20714 WAT       0.0566
  20715 WAT        22.4090   13.0940   10.8410 O      20715 WAT       0.0466
  20716 WAT        22.4090   13.3440    9.8410 O      20716 WAT       0.0495
  20717 WAT        22.4090   13.3440   10.0910 O      20717 WAT       0.0544
  20718 WAT        22.4090   13.3440   10.3410 O      20718 WAT       0.0506
  20719 WAT        22.4090   13.5940    9.8410 O      20719 WAT       0.0498
  20720 WAT        22.4090   13.5940   10.0910 O      20720 WAT       0.0453
  20721 WAT        22.4090   13.8440    9.5910 O      20721 WAT       0.0460
  20722 WAT        22.4090   14.3440    9.3410 O      20722 WAT       0.0457
  20723 WAT        22.4090   14.5940    9.0910 O      20723 WAT       0.0479
  20724 WAT        22.4090   14.5940    9.3410 O      20724 WAT       0.0473
  20725 WAT        22.4090   14.8440    8.8410 O      20725 WAT       0.0458
  20726 WAT        22.4090   14.8440    9.0910 O      20726 WAT       0.0543
  20727 WAT        22.4090   14.8440    9.3410 O      20727 WAT       0.0488
  20728 WAT        22.4090   15.0940    8.8410 O      20728 WAT       0.0545
  20729 WAT        22.4090   15.0940    9.0910 O      20729 WAT       0.0602
  20730 WAT        22.4090   15.0940    9.3410 O      20730 WAT       0.0503
  20731 WAT        22.4090   15.0940   19.8410 O      20731 WAT       0.0532
  20732 WAT        22.4090   15.0940   20.0910 O      20732 WAT       0.0547
  20733 WAT        22.4090   15.3440    8.5910 O      20733 WAT       0.0486
  20734 WAT        22.4090   15.3440    8.8410 O      20734 WAT       0.0621
  20735 WAT        22.4090   15.3440    9.0910 O      20735 WAT       0.0645
  20736 WAT        22.4090   15.3440    9.3410 O      20736 WAT       0.0508
  20737 WAT        22.4090   15.3440   19.5910 O      20737 WAT       0.0972
  20738 WAT        22.4090   15.3440   19.8410 O      20738 WAT       0.1629
  20739 WAT        22.4090   15.3440   20.0910 O      20739 WAT       0.1725
  20740 WAT        22.4090   15.3440   20.3410 O      20740 WAT       0.1153
  20741 WAT        22.4090   15.3440   20.5910 O      20741 WAT       0.0477
  20742 WAT        22.4090   15.5940    8.5910 O      20742 WAT       0.0562
  20743 WAT        22.4090   15.5940    8.8410 O      20743 WAT       0.0672
  20744 WAT        22.4090   15.5940    9.0910 O      20744 WAT       0.0656
  20745 WAT        22.4090   15.5940    9.3410 O      20745 WAT       0.0492
  20746 WAT        22.4090   15.5940   19.3410 O      20746 WAT       0.0712
  20747 WAT        22.4090   15.5940   19.5910 O      20747 WAT       0.1944
  20748 WAT        22.4090   15.5940   19.8410 O      20748 WAT       0.3347
  20749 WAT        22.4090   15.5940   20.0910 O      20749 WAT       0.3659
  20750 WAT        22.4090   15.5940   20.3410 O      20750 WAT       0.2537
  20751 WAT        22.4090   15.5940   20.5910 O      20751 WAT       0.1110
  20752 WAT        22.4090   15.8440    8.3410 O      20752 WAT       0.0490
  20753 WAT        22.4090   15.8440    8.5910 O      20753 WAT       0.0617
  20754 WAT        22.4090   15.8440    8.8410 O      20754 WAT       0.0685
  20755 WAT        22.4090   15.8440    9.0910 O      20755 WAT       0.0628
  20756 WAT        22.4090   15.8440   19.3410 O      20756 WAT       0.0943
  20757 WAT        22.4090   15.8440   19.5910 O      20757 WAT       0.2646
  20758 WAT        22.4090   15.8440   19.8410 O      20758 WAT       0.4710
  20759 WAT        22.4090   15.8440   20.0910 O      20759 WAT       0.5332
  20760 WAT        22.4090   15.8440   20.3410 O      20760 WAT       0.3833
  20761 WAT        22.4090   15.8440   20.5910 O      20761 WAT       0.1747
  20762 WAT        22.4090   15.8440   20.8410 O      20762 WAT       0.0494
  20763 WAT        22.4090   16.0940    8.3410 O      20763 WAT       0.0535
  20764 WAT        22.4090   16.0940    8.5910 O      20764 WAT       0.0622
  20765 WAT        22.4090   16.0940    8.8410 O      20765 WAT       0.0639
  20766 WAT        22.4090   16.0940    9.0910 O      20766 WAT       0.0550
  20767 WAT        22.4090   16.0940   19.3410 O      20767 WAT       0.0853
  20768 WAT        22.4090   16.0940   19.5910 O      20768 WAT       0.2478
  20769 WAT        22.4090   16.0940   19.8410 O      20769 WAT       0.4567
  20770 WAT        22.4090   16.0940   20.0910 O      20770 WAT       0.5362
  20771 WAT        22.4090   16.0940   20.3410 O      20771 WAT       0.4004
  20772 WAT        22.4090   16.0940   20.5910 O      20772 WAT       0.1899
  20773 WAT        22.4090   16.0940   20.8410 O      20773 WAT       0.0563
  20774 WAT        22.4090   16.3440    8.3410 O      20774 WAT       0.0511
  20775 WAT        22.4090   16.3440    8.5910 O      20775 WAT       0.0547
  20776 WAT        22.4090   16.3440    8.8410 O      20776 WAT       0.0521
  20777 WAT        22.4090   16.3440   19.3410 O      20777 WAT       0.0527
  20778 WAT        22.4090   16.3440   19.5910 O      20778 WAT       0.1604
  20779 WAT        22.4090   16.3440   19.8410 O      20779 WAT       0.3062
  20780 WAT        22.4090   16.3440   20.0910 O      20780 WAT       0.3729
  20781 WAT        22.4090   16.3440   20.3410 O      20781 WAT       0.2892
  20782 WAT        22.4090   16.3440   20.5910 O      20782 WAT       0.1425
  20783 WAT        22.4090   16.5940   19.5910 O      20783 WAT       0.0711
  20784 WAT        22.4090   16.5940   19.8410 O      20784 WAT       0.1415
  20785 WAT        22.4090   16.5940   20.0910 O      20785 WAT       0.1787
  20786 WAT        22.4090   16.5940   20.3410 O      20786 WAT       0.1436
  20787 WAT        22.4090   16.5940   20.5910 O      20787 WAT       0.0730
  20788 WAT        22.4090   16.8440   20.0910 O      20788 WAT       0.0577
  20789 WAT        22.4090   16.8440   20.3410 O      20789 WAT       0.0478
  20790 WAT        22.4090   17.0940    3.0910 O      20790 WAT       0.0459
  20791 WAT        22.4090   17.0940    3.3410 O      20791 WAT       0.0484
  20792 WAT        22.4090   17.0940    3.5910 O      20792 WAT       0.0482
  20793 WAT        22.4090   17.0940    3.8410 O      20793 WAT       0.0456
  20794 WAT        22.4090   17.3440    3.0910 O      20794 WAT       0.0474
  20795 WAT        22.4090   17.3440    3.3410 O      20795 WAT       0.0479
  20796 WAT        22.4090   17.3440    3.5910 O      20796 WAT       0.0455
  20797 WAT        22.4090   22.5940   29.3410 O      20797 WAT       0.0566
  20798 WAT        22.4090   22.5940   29.5910 O      20798 WAT       0.0537
  20799 WAT        22.4090   22.8440   29.0910 O      20799 WAT       0.0543
  20800 WAT        22.4090   22.8440   29.3410 O      20800 WAT       0.0827
  20801 WAT        22.4090   22.8440   29.5910 O      20801 WAT       0.0768
  20802 WAT        22.4090   23.0940   29.0910 O      20802 WAT       0.0543
  20803 WAT        22.4090   23.0940   29.3410 O      20803 WAT       0.0806
  20804 WAT        22.4090   23.0940   29.5910 O      20804 WAT       0.0733
  20805 WAT        22.4090   23.3440   29.3410 O      20805 WAT       0.0526
  20806 WAT        22.4090   23.3440   29.5910 O      20806 WAT       0.0469
  20807 WAT        22.4090   25.5940   21.0910 O      20807 WAT       0.0531
  20808 WAT        22.4090   25.5940   21.3410 O      20808 WAT       0.0595
  20809 WAT        22.4090   25.5940   21.5910 O      20809 WAT       0.0558
  20810 WAT        22.4090   25.8440   20.5910 O      20810 WAT       0.0621
  20811 WAT        22.4090   25.8440   20.8410 O      20811 WAT       0.0924
  20812 WAT        22.4090   25.8440   21.0910 O      20812 WAT       0.1113
  20813 WAT        22.4090   25.8440   21.3410 O      20813 WAT       0.1097
  20814 WAT        22.4090   25.8440   21.5910 O      20814 WAT       0.0903
  20815 WAT        22.4090   25.8440   21.8410 O      20815 WAT       0.0631
  20816 WAT        22.4090   26.0940   17.8410 O      20816 WAT       0.0465
  20817 WAT        22.4090   26.0940   18.0910 O      20817 WAT       0.0587
  20818 WAT        22.4090   26.0940   18.3410 O      20818 WAT       0.0601
  20819 WAT        22.4090   26.0940   18.5910 O      20819 WAT       0.0492
  20820 WAT        22.4090   26.0940   20.3410 O      20820 WAT       0.0699
  20821 WAT        22.4090   26.0940   20.5910 O      20821 WAT       0.1214
  20822 WAT        22.4090   26.0940   20.8410 O      20822 WAT       0.1684
  20823 WAT        22.4090   26.0940   21.0910 O      20823 WAT       0.1875
  20824 WAT        22.4090   26.0940   21.3410 O      20824 WAT       0.1695
  20825 WAT        22.4090   26.0940   21.5910 O      20825 WAT       0.1269
  20826 WAT        22.4090   26.0940   21.8410 O      20826 WAT       0.0810
  20827 WAT        22.4090   26.0940   22.0910 O      20827 WAT       0.0450
  20828 WAT        22.4090   26.3440   17.8410 O      20828 WAT       0.0550
  20829 WAT        22.4090   26.3440   18.0910 O      20829 WAT       0.0611
  20830 WAT        22.4090   26.3440   18.3410 O      20830 WAT       0.0553
  20831 WAT        22.4090   26.3440   20.0910 O      20831 WAT       0.0519
  20832 WAT        22.4090   26.3440   20.3410 O      20832 WAT       0.1049
  20833 WAT        22.4090   26.3440   20.5910 O      20833 WAT       0.1718
  20834 WAT        22.4090   26.3440   20.8410 O      20834 WAT       0.2250
  20835 WAT        22.4090   26.3440   21.0910 O      20835 WAT       0.2362
  20836 WAT        22.4090   26.3440   21.3410 O      20836 WAT       0.2006
  20837 WAT        22.4090   26.3440   21.5910 O      20837 WAT       0.1409
  20838 WAT        22.4090   26.3440   21.8410 O      20838 WAT       0.0848
  20839 WAT        22.4090   26.3440   22.0910 O      20839 WAT       0.0450
  20840 WAT        22.4090   26.5940   20.0910 O      20840 WAT       0.0598
  20841 WAT        22.4090   26.5940   20.3410 O      20841 WAT       0.1123
  20842 WAT        22.4090   26.5940   20.5910 O      20842 WAT       0.1721
  20843 WAT        22.4090   26.5940   20.8410 O      20843 WAT       0.2127
  20844 WAT        22.4090   26.5940   21.0910 O      20844 WAT       0.2116
  20845 WAT        22.4090   26.5940   21.3410 O      20845 WAT       0.1708
  20846 WAT        22.4090   26.5940   21.5910 O      20846 WAT       0.1145
  20847 WAT        22.4090   26.5940   21.8410 O      20847 WAT       0.0664
  20848 WAT        22.4090   26.5940   29.0910 O      20848 WAT       0.0472
  20849 WAT        22.4090   26.8440   20.0910 O      20849 WAT       0.0499
  20850 WAT        22.4090   26.8440   20.3410 O      20850 WAT       0.0863
  20851 WAT        22.4090   26.8440   20.5910 O      20851 WAT       0.1221
  20852 WAT        22.4090   26.8440   20.8410 O      20852 WAT       0.1405
  20853 WAT        22.4090   26.8440   21.0910 O      20853 WAT       0.1316
  20854 WAT        22.4090   26.8440   21.3410 O      20854 WAT       0.1009
  20855 WAT        22.4090   26.8440   21.5910 O      20855 WAT       0.0648
  20856 WAT        22.4090   26.8440   28.8410 O      20856 WAT       0.0554
  20857 WAT        22.4090   26.8440   29.0910 O      20857 WAT       0.0586
  20858 WAT        22.4090   27.0940   20.3410 O      20858 WAT       0.0483
  20859 WAT        22.4090   27.0940   20.5910 O      20859 WAT       0.0621
  20860 WAT        22.4090   27.0940   20.8410 O      20860 WAT       0.0651
  20861 WAT        22.4090   27.0940   21.0910 O      20861 WAT       0.0563
  20862 WAT        22.4090   27.0940   28.8410 O      20862 WAT       0.0502
  20863 WAT        22.4090   27.0940   29.0910 O      20863 WAT       0.0518
  20864 WAT        22.4090   28.0940   26.5910 O      20864 WAT       0.0506
  20865 WAT        22.4090   28.3440   26.3410 O      20865 WAT       0.0523
  20866 WAT        22.4090   28.3440   26.5910 O      20866 WAT       0.0677
  20867 WAT        22.4090   28.3440   26.8410 O      20867 WAT       0.0539
  20868 WAT        22.4090   28.5940   26.3410 O      20868 WAT       0.0503
  20869 WAT        22.4090   28.5940   26.5910 O      20869 WAT       0.0656
  20870 WAT        22.4090   28.5940   26.8410 O      20870 WAT       0.0526
  20871 WAT        22.4090   28.8440   26.5910 O      20871 WAT       0.0460
  20872 WAT        22.4090   34.3440   12.3410 O      20872 WAT       0.0590
  20873 WAT        22.4090   34.3440   12.5910 O      20873 WAT       0.0701
  20874 WAT        22.4090   34.3440   12.8410 O      20874 WAT       0.0641
  20875 WAT        22.4090   34.3440   13.0910 O      20875 WAT       0.0451
  20876 WAT        22.4090   34.5940   12.0910 O      20876 WAT       0.0631
  20877 WAT        22.4090   34.5940   12.3410 O      20877 WAT       0.1115
  20878 WAT        22.4090   34.5940   12.5910 O      20878 WAT       0.1513
  20879 WAT        22.4090   34.5940   12.8410 O      20879 WAT       0.1565
  20880 WAT        22.4090   34.5940   13.0910 O      20880 WAT       0.1235
  20881 WAT        22.4090   34.5940   13.3410 O      20881 WAT       0.0747
  20882 WAT        22.4090   34.5940   15.3410 O      20882 WAT       0.0565
  20883 WAT        22.4090   34.5940   15.5910 O      20883 WAT       0.0735
  20884 WAT        22.4090   34.5940   15.8410 O      20884 WAT       0.0805
  20885 WAT        22.4090   34.5940   16.0910 O      20885 WAT       0.0709
  20886 WAT        22.4090   34.5940   16.3410 O      20886 WAT       0.0479
  20887 WAT        22.4090   34.8440   12.0910 O      20887 WAT       0.0734
  20888 WAT        22.4090   34.8440   12.3410 O      20888 WAT       0.1465
  20889 WAT        22.4090   34.8440   12.5910 O      20889 WAT       0.2216
  20890 WAT        22.4090   34.8440   12.8410 O      20890 WAT       0.2532
  20891 WAT        22.4090   34.8440   13.0910 O      20891 WAT       0.2190
  20892 WAT        22.4090   34.8440   13.3410 O      20892 WAT       0.1448
  20893 WAT        22.4090   34.8440   13.5910 O      20893 WAT       0.0750
  20894 WAT        22.4090   34.8440   15.0910 O      20894 WAT       0.0723
  20895 WAT        22.4090   34.8440   15.3410 O      20895 WAT       0.1019
  20896 WAT        22.4090   34.8440   15.5910 O      20896 WAT       0.1226
  20897 WAT        22.4090   34.8440   15.8410 O      20897 WAT       0.1236
  20898 WAT        22.4090   34.8440   16.0910 O      20898 WAT       0.1013
  20899 WAT        22.4090   34.8440   16.3410 O      20899 WAT       0.0654
  20900 WAT        22.4090   35.0940   12.0910 O      20900 WAT       0.0597
  20901 WAT        22.4090   35.0940   12.3410 O      20901 WAT       0.1317
  20902 WAT        22.4090   35.0940   12.5910 O      20902 WAT       0.2175
  20903 WAT        22.4090   35.0940   12.8410 O      20903 WAT       0.2694
  20904 WAT        22.4090   35.0940   13.0910 O      20904 WAT       0.2514
  20905 WAT        22.4090   35.0940   13.3410 O      20905 WAT       0.1789
  20906 WAT        22.4090   35.0940   13.5910 O      20906 WAT       0.0994
  20907 WAT        22.4090   35.0940   13.8410 O      20907 WAT       0.0459
  20908 WAT        22.4090   35.0940   14.8410 O      20908 WAT       0.0554
  20909 WAT        22.4090   35.0940   15.0910 O      20909 WAT       0.0868
  20910 WAT        22.4090   35.0940   15.3410 O      20910 WAT       0.1167
  20911 WAT        22.4090   35.0940   15.5910 O      20911 WAT       0.1323
  20912 WAT        22.4090   35.0940   15.8410 O      20912 WAT       0.1248
  20913 WAT        22.4090   35.0940   16.0910 O      20913 WAT       0.0963
  20914 WAT        22.4090   35.0940   16.3410 O      20914 WAT       0.0602
  20915 WAT        22.4090   35.3440   12.3410 O      20915 WAT       0.0791
  20916 WAT        22.4090   35.3440   12.5910 O      20916 WAT       0.1403
  20917 WAT        22.4090   35.3440   12.8410 O      20917 WAT       0.1856
  20918 WAT        22.4090   35.3440   13.0910 O      20918 WAT       0.1845
  20919 WAT        22.4090   35.3440   13.3410 O      20919 WAT       0.1394
  20920 WAT        22.4090   35.3440   13.5910 O      20920 WAT       0.0819
  20921 WAT        22.4090   35.3440   15.0910 O      20921 WAT       0.0648
  20922 WAT        22.4090   35.3440   15.3410 O      20922 WAT       0.0841
  20923 WAT        22.4090   35.3440   15.5910 O      20923 WAT       0.0912
  20924 WAT        22.4090   35.3440   15.8410 O      20924 WAT       0.0818
  20925 WAT        22.4090   35.3440   16.0910 O      20925 WAT       0.0602
  20926 WAT        22.6590    8.3440   17.0910 O      20926 WAT       0.0464
  20927 WAT        22.6590    8.3440   17.3410 O      20927 WAT       0.0453
  20928 WAT        22.6590    8.3440   25.3410 O      20928 WAT       0.0461
  20929 WAT        22.6590    8.3440   25.5910 O      20929 WAT       0.0618
  20930 WAT        22.6590    8.3440   25.8410 O      20930 WAT       0.0743
  20931 WAT        22.6590    8.3440   26.0910 O      20931 WAT       0.0742
  20932 WAT        22.6590    8.3440   26.3410 O      20932 WAT       0.0586
  20933 WAT        22.6590    8.5940   16.8410 O      20933 WAT       0.0534
  20934 WAT        22.6590    8.5940   17.0910 O      20934 WAT       0.0594
  20935 WAT        22.6590    8.5940   17.3410 O      20935 WAT       0.0575
  20936 WAT        22.6590    8.5940   17.5910 O      20936 WAT       0.0466
  20937 WAT        22.6590    8.5940   25.3410 O      20937 WAT       0.0466
  20938 WAT        22.6590    8.5940   25.5910 O      20938 WAT       0.0614
  20939 WAT        22.6590    8.5940   25.8410 O      20939 WAT       0.0709
  20940 WAT        22.6590    8.5940   26.0910 O      20940 WAT       0.0672
  20941 WAT        22.6590    8.5940   26.3410 O      20941 WAT       0.0502
  20942 WAT        22.6590    8.8440   16.5910 O      20942 WAT       0.0481
  20943 WAT        22.6590    8.8440   16.8410 O      20943 WAT       0.0601
  20944 WAT        22.6590    8.8440   17.0910 O      20944 WAT       0.0675
  20945 WAT        22.6590    8.8440   17.3410 O      20945 WAT       0.0650
  20946 WAT        22.6590    8.8440   17.5910 O      20946 WAT       0.0520
  20947 WAT        22.6590    8.8440   25.5910 O      20947 WAT       0.0466
  20948 WAT        22.6590    8.8440   25.8410 O      20948 WAT       0.0518
  20949 WAT        22.6590    8.8440   26.0910 O      20949 WAT       0.0469
  20950 WAT        22.6590    9.0940   16.5910 O      20950 WAT       0.0471
  20951 WAT        22.6590    9.0940   16.8410 O      20951 WAT       0.0603
  20952 WAT        22.6590    9.0940   17.0910 O      20952 WAT       0.0684
  20953 WAT        22.6590    9.0940   17.3410 O      20953 WAT       0.0661
  20954 WAT        22.6590    9.0940   17.5910 O      20954 WAT       0.0529
  20955 WAT        22.6590    9.0940   27.5910 O      20955 WAT       0.0451
  20956 WAT        22.6590    9.0940   27.8410 O      20956 WAT       0.0686
  20957 WAT        22.6590    9.0940   28.0910 O      20957 WAT       0.0708
  20958 WAT        22.6590    9.0940   28.3410 O      20958 WAT       0.0500
  20959 WAT        22.6590    9.3440   16.8410 O      20959 WAT       0.0540
  20960 WAT        22.6590    9.3440   17.0910 O      20960 WAT       0.0618
  20961 WAT        22.6590    9.3440   17.3410 O      20961 WAT       0.0606
  20962 WAT        22.6590    9.3440   17.5910 O      20962 WAT       0.0499
  20963 WAT        22.6590    9.3440   27.5910 O      20963 WAT       0.0881
  20964 WAT        22.6590    9.3440   27.8410 O      20964 WAT       0.1262
  20965 WAT        22.6590    9.3440   28.0910 O      20965 WAT       0.1211
  20966 WAT        22.6590    9.3440   28.3410 O      20966 WAT       0.0781
  20967 WAT        22.6590    9.5940   17.0910 O      20967 WAT       0.0510
  20968 WAT        22.6590    9.5940   17.3410 O      20968 WAT       0.0511
  20969 WAT        22.6590    9.5940   27.3410 O      20969 WAT       0.0697
  20970 WAT        22.6590    9.5940   27.5910 O      20970 WAT       0.1455
  20971 WAT        22.6590    9.5940   27.8410 O      20971 WAT       0.2009
  20972 WAT        22.6590    9.5940   28.0910 O      20972 WAT       0.1838
  20973 WAT        22.6590    9.5940   28.3410 O      20973 WAT       0.1115
  20974 WAT        22.6590    9.8440   27.3410 O      20974 WAT       0.0979
  20975 WAT        22.6590    9.8440   27.5910 O      20975 WAT       0.2007
  20976 WAT        22.6590    9.8440   27.8410 O      20976 WAT       0.2710
  20977 WAT        22.6590    9.8440   28.0910 O      20977 WAT       0.2405
  20978 WAT        22.6590    9.8440   28.3410 O      20978 WAT       0.1400
  20979 WAT        22.6590    9.8440   28.5910 O      20979 WAT       0.0527
  20980 WAT        22.6590   10.0940   27.3410 O      20980 WAT       0.1136
  20981 WAT        22.6590   10.0940   27.5910 O      20981 WAT       0.2309
  20982 WAT        22.6590   10.0940   27.8410 O      20982 WAT       0.3077
  20983 WAT        22.6590   10.0940   28.0910 O      20983 WAT       0.2676
  20984 WAT        22.6590   10.0940   28.3410 O      20984 WAT       0.1513
  20985 WAT        22.6590   10.0940   28.5910 O      20985 WAT       0.0546
  20986 WAT        22.6590   10.3440   15.5910 O      20986 WAT       0.0480
  20987 WAT        22.6590   10.3440   15.8410 O      20987 WAT       0.0494
  20988 WAT        22.6590   10.3440   16.0910 O      20988 WAT       0.0468
  20989 WAT        22.6590   10.3440   27.3410 O      20989 WAT       0.1089
  20990 WAT        22.6590   10.3440   27.5910 O      20990 WAT       0.2205
  20991 WAT        22.6590   10.3440   27.8410 O      20991 WAT       0.2921
  20992 WAT        22.6590   10.3440   28.0910 O      20992 WAT       0.2512
  20993 WAT        22.6590   10.3440   28.3410 O      20993 WAT       0.1394
  20994 WAT        22.6590   10.3440   28.5910 O      20994 WAT       0.0489
  20995 WAT        22.6590   10.5940   15.0910 O      20995 WAT       0.0494
  20996 WAT        22.6590   10.5940   15.3410 O      20996 WAT       0.0620
  20997 WAT        22.6590   10.5940   15.5910 O      20997 WAT       0.0693
  20998 WAT        22.6590   10.5940   15.8410 O      20998 WAT       0.0694
  20999 WAT        22.6590   10.5940   16.0910 O      20999 WAT       0.0625
  21000 WAT        22.6590   10.5940   16.3410 O      21000 WAT       0.0503
  21001 WAT        22.6590   10.5940   27.3410 O      21001 WAT       0.0848
  21002 WAT        22.6590   10.5940   27.5910 O      21002 WAT       0.1722
  21003 WAT        22.6590   10.5940   27.8410 O      21003 WAT       0.2280
  21004 WAT        22.6590   10.5940   28.0910 O      21004 WAT       0.1956
  21005 WAT        22.6590   10.5940   28.3410 O      21005 WAT       0.1077
  21006 WAT        22.6590   10.8440   14.8410 O      21006 WAT       0.0470
  21007 WAT        22.6590   10.8440   15.0910 O      21007 WAT       0.0660
  21008 WAT        22.6590   10.8440   15.3410 O      21008 WAT       0.0831
  21009 WAT        22.6590   10.8440   15.5910 O      21009 WAT       0.0923
  21010 WAT        22.6590   10.8440   15.8410 O      21010 WAT       0.0903
  21011 WAT        22.6590   10.8440   16.0910 O      21011 WAT       0.0775
  21012 WAT        22.6590   10.8440   16.3410 O      21012 WAT       0.0576
  21013 WAT        22.6590   10.8440   27.3410 O      21013 WAT       0.0522
  21014 WAT        22.6590   10.8440   27.5910 O      21014 WAT       0.1066
  21015 WAT        22.6590   10.8440   27.8410 O      21015 WAT       0.1420
  21016 WAT        22.6590   10.8440   28.0910 O      21016 WAT       0.1224
  21017 WAT        22.6590   10.8440   28.3410 O      21017 WAT       0.0676
  21018 WAT        22.6590   11.0940   14.8410 O      21018 WAT       0.0587
  21019 WAT        22.6590   11.0940   15.0910 O      21019 WAT       0.0827
  21020 WAT        22.6590   11.0940   15.3410 O      21020 WAT       0.1044
  21021 WAT        22.6590   11.0940   15.5910 O      21021 WAT       0.1153
  21022 WAT        22.6590   11.0940   15.8410 O      21022 WAT       0.1103
  21023 WAT        22.6590   11.0940   16.0910 O      21023 WAT       0.0903
  21024 WAT        22.6590   11.0940   16.3410 O      21024 WAT       0.0620
  21025 WAT        22.6590   11.0940   27.5910 O      21025 WAT       0.0507
  21026 WAT        22.6590   11.0940   27.8410 O      21026 WAT       0.0682
  21027 WAT        22.6590   11.0940   28.0910 O      21027 WAT       0.0595
  21028 WAT        22.6590   11.3440   14.5910 O      21028 WAT       0.0466
  21029 WAT        22.6590   11.3440   14.8410 O      21029 WAT       0.0698
  21030 WAT        22.6590   11.3440   15.0910 O      21030 WAT       0.0979
  21031 WAT        22.6590   11.3440   15.3410 O      21031 WAT       0.1234
  21032 WAT        22.6590   11.3440   15.5910 O      21032 WAT       0.1353
  21033 WAT        22.6590   11.3440   15.8410 O      21033 WAT       0.1265
  21034 WAT        22.6590   11.3440   16.0910 O      21034 WAT       0.0985
  21035 WAT        22.6590   11.3440   16.3410 O      21035 WAT       0.0625
  21036 WAT        22.6590   11.5940   14.5910 O      21036 WAT       0.0532
  21037 WAT        22.6590   11.5940   14.8410 O      21037 WAT       0.0785
  21038 WAT        22.6590   11.5940   15.0910 O      21038 WAT       0.1087
  21039 WAT        22.6590   11.5940   15.3410 O      21039 WAT       0.1356
  21040 WAT        22.6590   11.5940   15.5910 O      21040 WAT       0.1466
  21041 WAT        22.6590   11.5940   15.8410 O      21041 WAT       0.1330
  21042 WAT        22.6590   11.5940   16.0910 O      21042 WAT       0.0984
  21043 WAT        22.6590   11.5940   16.3410 O      21043 WAT       0.0580
  21044 WAT        22.6590   11.8440   14.5910 O      21044 WAT       0.0574
  21045 WAT        22.6590   11.8440   14.8410 O      21045 WAT       0.0810
  21046 WAT        22.6590   11.8440   15.0910 O      21046 WAT       0.1089
  21047 WAT        22.6590   11.8440   15.3410 O      21047 WAT       0.1327
  21048 WAT        22.6590   11.8440   15.5910 O      21048 WAT       0.1398
  21049 WAT        22.6590   11.8440   15.8410 O      21049 WAT       0.1222
  21050 WAT        22.6590   11.8440   16.0910 O      21050 WAT       0.0860
  21051 WAT        22.6590   11.8440   16.3410 O      21051 WAT       0.0476
  21052 WAT        22.6590   12.0940   12.5910 O      21052 WAT       0.0472
  21053 WAT        22.6590   12.0940   12.8410 O      21053 WAT       0.0503
  21054 WAT        22.6590   12.0940   13.0910 O      21054 WAT       0.0495
  21055 WAT        22.6590   12.0940   13.3410 O      21055 WAT       0.0450
  21056 WAT        22.6590   12.0940   14.3410 O      21056 WAT       0.0458
  21057 WAT        22.6590   12.0940   14.5910 O      21057 WAT       0.0568
  21058 WAT        22.6590   12.0940   14.8410 O      21058 WAT       0.0731
  21059 WAT        22.6590   12.0940   15.0910 O      21059 WAT       0.0926
  21060 WAT        22.6590   12.0940   15.3410 O      21060 WAT       0.1082
  21061 WAT        22.6590   12.0940   15.5910 O      21061 WAT       0.1097
  21062 WAT        22.6590   12.0940   15.8410 O      21062 WAT       0.0919
  21063 WAT        22.6590   12.0940   16.0910 O      21063 WAT       0.0616
  21064 WAT        22.6590   12.3440   11.8410 O      21064 WAT       0.0462
  21065 WAT        22.6590   12.3440   12.0910 O      21065 WAT       0.0526
  21066 WAT        22.6590   12.3440   12.3410 O      21066 WAT       0.0618
  21067 WAT        22.6590   12.3440   12.5910 O      21067 WAT       0.0718
  21068 WAT        22.6590   12.3440   12.8410 O      21068 WAT       0.0791
  21069 WAT        22.6590   12.3440   13.0910 O      21069 WAT       0.0801
  21070 WAT        22.6590   12.3440   13.3410 O      21070 WAT       0.0739
  21071 WAT        22.6590   12.3440   13.5910 O      21071 WAT       0.0640
  21072 WAT        22.6590   12.3440   13.8410 O      21072 WAT       0.0553
  21073 WAT        22.6590   12.3440   14.0910 O      21073 WAT       0.0501
  21074 WAT        22.6590   12.3440   14.3410 O      21074 WAT       0.0483
  21075 WAT        22.6590   12.3440   14.5910 O      21075 WAT       0.0498
  21076 WAT        22.6590   12.3440   14.8410 O      21076 WAT       0.0551
  21077 WAT        22.6590   12.3440   15.0910 O      21077 WAT       0.0629
  21078 WAT        22.6590   12.3440   15.3410 O      21078 WAT       0.0687
  21079 WAT        22.6590   12.3440   15.5910 O      21079 WAT       0.0661
  21080 WAT        22.6590   12.3440   15.8410 O      21080 WAT       0.0527
  21081 WAT        22.6590   12.5940   10.5910 O      21081 WAT       0.0504
  21082 WAT        22.6590   12.5940   10.8410 O      21082 WAT       0.0554
  21083 WAT        22.6590   12.5940   11.0910 O      21083 WAT       0.0552
  21084 WAT        22.6590   12.5940   11.3410 O      21084 WAT       0.0526
  21085 WAT        22.6590   12.5940   11.5910 O      21085 WAT       0.0515
  21086 WAT        22.6590   12.5940   11.8410 O      21086 WAT       0.0544
  21087 WAT        22.6590   12.5940   12.0910 O      21087 WAT       0.0619
  21088 WAT        22.6590   12.5940   12.3410 O      21088 WAT       0.0738
  21089 WAT        22.6590   12.5940   12.5910 O      21089 WAT       0.0878
  21090 WAT        22.6590   12.5940   12.8410 O      21090 WAT       0.0993
  21091 WAT        22.6590   12.5940   13.0910 O      21091 WAT       0.1023
  21092 WAT        22.6590   12.5940   13.3410 O      21092 WAT       0.0948
  21093 WAT        22.6590   12.5940   13.5910 O      21093 WAT       0.0801
  21094 WAT        22.6590   12.5940   13.8410 O      21094 WAT       0.0644
  21095 WAT        22.6590   12.5940   14.0910 O      21095 WAT       0.0517
  21096 WAT        22.6590   12.8440   10.3410 O      21096 WAT       0.0533
  21097 WAT        22.6590   12.8440   10.5910 O      21097 WAT       0.0617
  21098 WAT        22.6590   12.8440   10.8410 O      21098 WAT       0.0629
  21099 WAT        22.6590   12.8440   11.0910 O      21099 WAT       0.0576
  21100 WAT        22.6590   12.8440   11.3410 O      21100 WAT       0.0503
  21101 WAT        22.6590   12.8440   11.5910 O      21101 WAT       0.0458
  21102 WAT        22.6590   12.8440   11.8410 O      21102 WAT       0.0465
  21103 WAT        22.6590   12.8440   12.0910 O      21103 WAT       0.0523
  21104 WAT        22.6590   12.8440   12.3410 O      21104 WAT       0.0629
  21105 WAT        22.6590   12.8440   12.5910 O      21105 WAT       0.0765
  21106 WAT        22.6590   12.8440   12.8410 O      21106 WAT       0.0887
  21107 WAT        22.6590   12.8440   13.0910 O      21107 WAT       0.0932
  21108 WAT        22.6590   12.8440   13.3410 O      21108 WAT       0.0867
  21109 WAT        22.6590   12.8440   13.5910 O      21109 WAT       0.0716
  21110 WAT        22.6590   12.8440   13.8410 O      21110 WAT       0.0540
  21111 WAT        22.6590   13.0940   10.0910 O      21111 WAT       0.0499
  21112 WAT        22.6590   13.0940   10.3410 O      21112 WAT       0.0585
  21113 WAT        22.6590   13.0940   10.5910 O      21113 WAT       0.0597
  21114 WAT        22.6590   13.0940   10.8410 O      21114 WAT       0.0536
  21115 WAT        22.6590   13.0940   12.5910 O      21115 WAT       0.0455
  21116 WAT        22.6590   13.0940   12.8410 O      21116 WAT       0.0543
  21117 WAT        22.6590   13.0940   13.0910 O      21117 WAT       0.0582
  21118 WAT        22.6590   13.0940   13.3410 O      21118 WAT       0.0544
  21119 WAT        22.6590   13.3440   10.0910 O      21119 WAT       0.0513
  21120 WAT        22.6590   13.3440   10.3410 O      21120 WAT       0.0508
  21121 WAT        22.6590   13.5940    9.8410 O      21121 WAT       0.0455
  21122 WAT        22.6590   14.8440    9.0910 O      21122 WAT       0.0499
  21123 WAT        22.6590   14.8440    9.3410 O      21123 WAT       0.0462
  21124 WAT        22.6590   15.0940    8.8410 O      21124 WAT       0.0525
  21125 WAT        22.6590   15.0940    9.0910 O      21125 WAT       0.0589
  21126 WAT        22.6590   15.0940    9.3410 O      21126 WAT       0.0511
  21127 WAT        22.6590   15.0940   19.5910 O      21127 WAT       0.0450
  21128 WAT        22.6590   15.0940   19.8410 O      21128 WAT       0.0704
  21129 WAT        22.6590   15.0940   20.0910 O      21129 WAT       0.0693
  21130 WAT        22.6590   15.3440    8.5910 O      21130 WAT       0.0498
  21131 WAT        22.6590   15.3440    8.8410 O      21131 WAT       0.0629
  21132 WAT        22.6590   15.3440    9.0910 O      21132 WAT       0.0667
  21133 WAT        22.6590   15.3440    9.3410 O      21133 WAT       0.0552
  21134 WAT        22.6590   15.3440   19.3410 O      21134 WAT       0.0501
  21135 WAT        22.6590   15.3440   19.5910 O      21135 WAT       0.1259
  21136 WAT        22.6590   15.3440   19.8410 O      21136 WAT       0.2005
  21137 WAT        22.6590   15.3440   20.0910 O      21137 WAT       0.2031
  21138 WAT        22.6590   15.3440   20.3410 O      21138 WAT       0.1301
  21139 WAT        22.6590   15.3440   20.5910 O      21139 WAT       0.0516
  21140 WAT        22.6590   15.5940    8.3410 O      21140 WAT       0.0459
  21141 WAT        22.6590   15.5940    8.5910 O      21141 WAT       0.0596
  21142 WAT        22.6590   15.5940    8.8410 O      21142 WAT       0.0706
  21143 WAT        22.6590   15.5940    9.0910 O      21143 WAT       0.0709
  21144 WAT        22.6590   15.5940    9.3410 O      21144 WAT       0.0562
  21145 WAT        22.6590   15.5940   19.3410 O      21145 WAT       0.0933
  21146 WAT        22.6590   15.5940   19.5910 O      21146 WAT       0.2393
  21147 WAT        22.6590   15.5940   19.8410 O      21147 WAT       0.3920
  21148 WAT        22.6590   15.5940   20.0910 O      21148 WAT       0.4094
  21149 WAT        22.6590   15.5940   20.3410 O      21149 WAT       0.2715
  21150 WAT        22.6590   15.5940   20.5910 O      21150 WAT       0.1136
  21151 WAT        22.6590   15.8440    8.3410 O      21151 WAT       0.0544
  21152 WAT        22.6590   15.8440    8.5910 O      21152 WAT       0.0661
  21153 WAT        22.6590   15.8440    8.8410 O      21153 WAT       0.0730
  21154 WAT        22.6590   15.8440    9.0910 O      21154 WAT       0.0691
  21155 WAT        22.6590   15.8440    9.3410 O      21155 WAT       0.0525
  21156 WAT        22.6590   15.8440   19.3410 O      21156 WAT       0.1193
  21157 WAT        22.6590   15.8440   19.5910 O      21157 WAT       0.3153
  21158 WAT        22.6590   15.8440   19.8410 O      21158 WAT       0.5336
  21159 WAT        22.6590   15.8440   20.0910 O      21159 WAT       0.5765
  21160 WAT        22.6590   15.8440   20.3410 O      21160 WAT       0.3961
  21161 WAT        22.6590   15.8440   20.5910 O      21161 WAT       0.1725
  21162 WAT        22.6590   15.8440   20.8410 O      21162 WAT       0.0463
  21163 WAT        22.6590   16.0940    8.0910 O      21163 WAT       0.0471
  21164 WAT        22.6590   16.0940    8.3410 O      21164 WAT       0.0576
  21165 WAT        22.6590   16.0940    8.5910 O      21165 WAT       0.0654
  21166 WAT        22.6590   16.0940    8.8410 O      21166 WAT       0.0673
  21167 WAT        22.6590   16.0940    9.0910 O      21167 WAT       0.0599
  21168 WAT        22.6590   16.0940   19.3410 O      21168 WAT       0.1062
  21169 WAT        22.6590   16.0940   19.5910 O      21169 WAT       0.2904
  21170 WAT        22.6590   16.0940   19.8410 O      21170 WAT       0.5085
  21171 WAT        22.6590   16.0940   20.0910 O      21171 WAT       0.5692
  21172 WAT        22.6590   16.0940   20.3410 O      21172 WAT       0.4060
  21173 WAT        22.6590   16.0940   20.5910 O      21173 WAT       0.1839
  21174 WAT        22.6590   16.0940   20.8410 O      21174 WAT       0.0517
  21175 WAT        22.6590   16.3440    8.0910 O      21175 WAT       0.0452
  21176 WAT        22.6590   16.3440    8.3410 O      21176 WAT       0.0519
  21177 WAT        22.6590   16.3440    8.5910 O      21177 WAT       0.0549
  21178 WAT        22.6590   16.3440    8.8410 O      21178 WAT       0.0525
  21179 WAT        22.6590   16.3440   19.3410 O      21179 WAT       0.0660
  21180 WAT        22.6590   16.3440   19.5910 O      21180 WAT       0.1879
  21181 WAT        22.6590   16.3440   19.8410 O      21181 WAT       0.3402
  21182 WAT        22.6590   16.3440   20.0910 O      21182 WAT       0.3946
  21183 WAT        22.6590   16.3440   20.3410 O      21183 WAT       0.2922
  21184 WAT        22.6590   16.3440   20.5910 O      21184 WAT       0.1374
  21185 WAT        22.6590   16.5940   19.5910 O      21185 WAT       0.0848
  21186 WAT        22.6590   16.5940   19.8410 O      21186 WAT       0.1593
  21187 WAT        22.6590   16.5940   20.0910 O      21187 WAT       0.1911
  21188 WAT        22.6590   16.5940   20.3410 O      21188 WAT       0.1464
  21189 WAT        22.6590   16.5940   20.5910 O      21189 WAT       0.0708
  21190 WAT        22.6590   16.8440   19.8410 O      21190 WAT       0.0508
  21191 WAT        22.6590   16.8440   20.0910 O      21191 WAT       0.0632
  21192 WAT        22.6590   16.8440   20.3410 O      21192 WAT       0.0497
  21193 WAT        22.6590   17.0940    3.0910 O      21193 WAT       0.0474
  21194 WAT        22.6590   17.0940    3.3410 O      21194 WAT       0.0502
  21195 WAT        22.6590   17.0940    3.5910 O      21195 WAT       0.0499
  21196 WAT        22.6590   17.0940    3.8410 O      21196 WAT       0.0464
  21197 WAT        22.6590   17.3440    2.8410 O      21197 WAT       0.0469
  21198 WAT        22.6590   17.3440    3.0910 O      21198 WAT       0.0506
  21199 WAT        22.6590   17.3440    3.3410 O      21199 WAT       0.0515
  21200 WAT        22.6590   17.3440    3.5910 O      21200 WAT       0.0490
  21201 WAT        22.6590   17.5940    3.0910 O      21201 WAT       0.0455
  21202 WAT        22.6590   22.3440   29.3410 O      21202 WAT       0.0462
  21203 WAT        22.6590   22.5940   29.0910 O      21203 WAT       0.0694
  21204 WAT        22.6590   22.5940   29.3410 O      21204 WAT       0.1044
  21205 WAT        22.6590   22.5940   29.5910 O      21205 WAT       0.0962
  21206 WAT        22.6590   22.8440   28.8410 O      21206 WAT       0.0458
  21207 WAT        22.6590   22.8440   29.0910 O      21207 WAT       0.1070
  21208 WAT        22.6590   22.8440   29.3410 O      21208 WAT       0.1562
  21209 WAT        22.6590   22.8440   29.5910 O      21209 WAT       0.1406
  21210 WAT        22.6590   23.0940   28.8410 O      21210 WAT       0.0486
  21211 WAT        22.6590   23.0940   29.0910 O      21211 WAT       0.1095
  21212 WAT        22.6590   23.0940   29.3410 O      21212 WAT       0.1552
  21213 WAT        22.6590   23.0940   29.5910 O      21213 WAT       0.1364
  21214 WAT        22.6590   23.3440   29.0910 O      21214 WAT       0.0744
  21215 WAT        22.6590   23.3440   29.3410 O      21215 WAT       0.1026
  21216 WAT        22.6590   23.3440   29.5910 O      21216 WAT       0.0881
  21217 WAT        22.6590   23.5940   29.3410 O      21217 WAT       0.0456
  21218 WAT        22.6590   25.5940   18.5910 O      21218 WAT       0.0464
  21219 WAT        22.6590   25.5940   20.8410 O      21219 WAT       0.0458
  21220 WAT        22.6590   25.5940   21.0910 O      21220 WAT       0.0591
  21221 WAT        22.6590   25.5940   21.3410 O      21221 WAT       0.0648
  21222 WAT        22.6590   25.5940   21.5910 O      21222 WAT       0.0608
  21223 WAT        22.6590   25.5940   21.8410 O      21223 WAT       0.0491
  21224 WAT        22.6590   25.8440   17.8410 O      21224 WAT       0.0593
  21225 WAT        22.6590   25.8440   18.0910 O      21225 WAT       0.0839
  21226 WAT        22.6590   25.8440   18.3410 O      21226 WAT       0.0970
  21227 WAT        22.6590   25.8440   18.5910 O      21227 WAT       0.0896
  21228 WAT        22.6590   25.8440   18.8410 O      21228 WAT       0.0646
  21229 WAT        22.6590   25.8440   20.5910 O      21229 WAT       0.0683
  21230 WAT        22.6590   25.8440   20.8410 O      21230 WAT       0.0956
  21231 WAT        22.6590   25.8440   21.0910 O      21231 WAT       0.1099
  21232 WAT        22.6590   25.8440   21.3410 O      21232 WAT       0.1053
  21233 WAT        22.6590   25.8440   21.5910 O      21233 WAT       0.0858
  21234 WAT        22.6590   25.8440   21.8410 O      21234 WAT       0.0606
  21235 WAT        22.6590   26.0940   17.5910 O      21235 WAT       0.0748
  21236 WAT        22.6590   26.0940   17.8410 O      21236 WAT       0.1128
  21237 WAT        22.6590   26.0940   18.0910 O      21237 WAT       0.1381
  21238 WAT        22.6590   26.0940   18.3410 O      21238 WAT       0.1396
  21239 WAT        22.6590   26.0940   18.5910 O      21239 WAT       0.1148
  21240 WAT        22.6590   26.0940   18.8410 O      21240 WAT       0.0748
  21241 WAT        22.6590   26.0940   20.3410 O      21241 WAT       0.0757
  21242 WAT        22.6590   26.0940   20.5910 O      21242 WAT       0.1240
  21243 WAT        22.6590   26.0940   20.8410 O      21243 WAT       0.1617
  21244 WAT        22.6590   26.0940   21.0910 O      21244 WAT       0.1705
  21245 WAT        22.6590   26.0940   21.3410 O      21245 WAT       0.1476
  21246 WAT        22.6590   26.0940   21.5910 O      21246 WAT       0.1072
  21247 WAT        22.6590   26.0940   21.8410 O      21247 WAT       0.0671
  21248 WAT        22.6590   26.3440   17.3410 O      21248 WAT       0.0599
  21249 WAT        22.6590   26.3440   17.5910 O      21249 WAT       0.1051
  21250 WAT        22.6590   26.3440   17.8410 O      21250 WAT       0.1414
  21251 WAT        22.6590   26.3440   18.0910 O      21251 WAT       0.1520
  21252 WAT        22.6590   26.3440   18.3410 O      21252 WAT       0.1345
  21253 WAT        22.6590   26.3440   18.5910 O      21253 WAT       0.0983
  21254 WAT        22.6590   26.3440   18.8410 O      21254 WAT       0.0583
  21255 WAT        22.6590   26.3440   20.0910 O      21255 WAT       0.0553
  21256 WAT        22.6590   26.3440   20.3410 O      21256 WAT       0.1076
  21257 WAT        22.6590   26.3440   20.5910 O      21257 WAT       0.1672
  21258 WAT        22.6590   26.3440   20.8410 O      21258 WAT       0.2061
  21259 WAT        22.6590   26.3440   21.0910 O      21259 WAT       0.2035
  21260 WAT        22.6590   26.3440   21.3410 O      21260 WAT       0.1636
  21261 WAT        22.6590   26.3440   21.5910 O      21261 WAT       0.1090
  21262 WAT        22.6590   26.3440   21.8410 O      21262 WAT       0.0620
  21263 WAT        22.6590   26.3440   28.8410 O      21263 WAT       0.0582
  21264 WAT        22.6590   26.3440   29.0910 O      21264 WAT       0.0641
  21265 WAT        22.6590   26.3440   29.3410 O      21265 WAT       0.0490
  21266 WAT        22.6590   26.5940   17.3410 O      21266 WAT       0.0591
  21267 WAT        22.6590   26.5940   17.5910 O      21267 WAT       0.0963
  21268 WAT        22.6590   26.5940   17.8410 O      21268 WAT       0.1180
  21269 WAT        22.6590   26.5940   18.0910 O      21269 WAT       0.1130
  21270 WAT        22.6590   26.5940   18.3410 O      21270 WAT       0.0881
  21271 WAT        22.6590   26.5940   18.5910 O      21271 WAT       0.0572
  21272 WAT        22.6590   26.5940   20.0910 O      21272 WAT       0.0600
  21273 WAT        22.6590   26.5940   20.3410 O      21273 WAT       0.1099
  21274 WAT        22.6590   26.5940   20.5910 O      21274 WAT       0.1616
  21275 WAT        22.6590   26.5940   20.8410 O      21275 WAT       0.1889
  21276 WAT        22.6590   26.5940   21.0910 O      21276 WAT       0.1765
  21277 WAT        22.6590   26.5940   21.3410 O      21277 WAT       0.1335
  21278 WAT        22.6590   26.5940   21.5910 O      21278 WAT       0.0832
  21279 WAT        22.6590   26.5940   28.5910 O      21279 WAT       0.0693
  21280 WAT        22.6590   26.5940   28.8410 O      21280 WAT       0.1070
  21281 WAT        22.6590   26.5940   29.0910 O      21281 WAT       0.1137
  21282 WAT        22.6590   26.5940   29.3410 O      21282 WAT       0.0842
  21283 WAT        22.6590   26.8440   17.5910 O      21283 WAT       0.0578
  21284 WAT        22.6590   26.8440   17.8410 O      21284 WAT       0.0657
  21285 WAT        22.6590   26.8440   18.0910 O      21285 WAT       0.0574
  21286 WAT        22.6590   26.8440   20.0910 O      21286 WAT       0.0470
  21287 WAT        22.6590   26.8440   20.3410 O      21287 WAT       0.0800
  21288 WAT        22.6590   26.8440   20.5910 O      21288 WAT       0.1102
  21289 WAT        22.6590   26.8440   20.8410 O      21289 WAT       0.1213
  21290 WAT        22.6590   26.8440   21.0910 O      21290 WAT       0.1072
  21291 WAT        22.6590   26.8440   21.3410 O      21291 WAT       0.0766
  21292 WAT        22.6590   26.8440   28.5910 O      21292 WAT       0.0933
  21293 WAT        22.6590   26.8440   28.8410 O      21293 WAT       0.1394
  21294 WAT        22.6590   26.8440   29.0910 O      21294 WAT       0.1440
  21295 WAT        22.6590   26.8440   29.3410 O      21295 WAT       0.1042
  21296 WAT        22.6590   26.8440   29.5910 O      21296 WAT       0.0524
  21297 WAT        22.6590   27.0940   20.5910 O      21297 WAT       0.0531
  21298 WAT        22.6590   27.0940   20.8410 O      21298 WAT       0.0541
  21299 WAT        22.6590   27.0940   28.5910 O      21299 WAT       0.0892
  21300 WAT        22.6590   27.0940   28.8410 O      21300 WAT       0.1309
  21301 WAT        22.6590   27.0940   29.0910 O      21301 WAT       0.1331
  21302 WAT        22.6590   27.0940   29.3410 O      21302 WAT       0.0949
  21303 WAT        22.6590   27.0940   29.5910 O      21303 WAT       0.0470
  21304 WAT        22.6590   27.3440   28.5910 O      21304 WAT       0.0608
  21305 WAT        22.6590   27.3440   28.8410 O      21305 WAT       0.0894
  21306 WAT        22.6590   27.3440   29.0910 O      21306 WAT       0.0911
  21307 WAT        22.6590   27.3440   29.3410 O      21307 WAT       0.0648
  21308 WAT        22.6590   27.5940   29.0910 O      21308 WAT       0.0461
  21309 WAT        22.6590   27.8440   26.3410 O      21309 WAT       0.0506
  21310 WAT        22.6590   27.8440   26.5910 O      21310 WAT       0.0681
  21311 WAT        22.6590   27.8440   26.8410 O      21311 WAT       0.0570
  21312 WAT        22.6590   28.0940   26.3410 O      21312 WAT       0.0936
  21313 WAT        22.6590   28.0940   26.5910 O      21313 WAT       0.1261
  21314 WAT        22.6590   28.0940   26.8410 O      21314 WAT       0.1057
  21315 WAT        22.6590   28.0940   27.0910 O      21315 WAT       0.0551
  21316 WAT        22.6590   28.3440   26.0910 O      21316 WAT       0.0580
  21317 WAT        22.6590   28.3440   26.3410 O      21317 WAT       0.1277
  21318 WAT        22.6590   28.3440   26.5910 O      21318 WAT       0.1726
  21319 WAT        22.6590   28.3440   26.8410 O      21319 WAT       0.1450
  21320 WAT        22.6590   28.3440   27.0910 O      21320 WAT       0.0758
  21321 WAT        22.6590   28.5940   26.0910 O      21321 WAT       0.0577
  21322 WAT        22.6590   28.5940   26.3410 O      21322 WAT       0.1284
  21323 WAT        22.6590   28.5940   26.5910 O      21323 WAT       0.1748
  21324 WAT        22.6590   28.5940   26.8410 O      21324 WAT       0.1472
  21325 WAT        22.6590   28.5940   27.0910 O      21325 WAT       0.0769
  21326 WAT        22.6590   28.8440   26.3410 O      21326 WAT       0.0946
  21327 WAT        22.6590   28.8440   26.5910 O      21327 WAT       0.1300
  21328 WAT        22.6590   28.8440   26.8410 O      21328 WAT       0.1099
  21329 WAT        22.6590   28.8440   27.0910 O      21329 WAT       0.0571
  21330 WAT        22.6590   29.0940   26.3410 O      21330 WAT       0.0502
  21331 WAT        22.6590   29.0940   26.5910 O      21331 WAT       0.0700
  21332 WAT        22.6590   29.0940   26.8410 O      21332 WAT       0.0593
  21333 WAT        22.6590   34.0940   12.0910 O      21333 WAT       0.0462
  21334 WAT        22.6590   34.0940   12.3410 O      21334 WAT       0.0514
  21335 WAT        22.6590   34.3440   11.8410 O      21335 WAT       0.0498
  21336 WAT        22.6590   34.3440   12.0910 O      21336 WAT       0.0876
  21337 WAT        22.6590   34.3440   12.3410 O      21337 WAT       0.1139
  21338 WAT        22.6590   34.3440   12.5910 O      21338 WAT       0.1119
  21339 WAT        22.6590   34.3440   12.8410 O      21339 WAT       0.0846
  21340 WAT        22.6590   34.3440   13.0910 O      21340 WAT       0.0501
  21341 WAT        22.6590   34.3440   15.5910 O      21341 WAT       0.0456
  21342 WAT        22.6590   34.3440   15.8410 O      21342 WAT       0.0622
  21343 WAT        22.6590   34.3440   16.0910 O      21343 WAT       0.0655
  21344 WAT        22.6590   34.3440   16.3410 O      21344 WAT       0.0505
  21345 WAT        22.6590   34.5940   11.8410 O      21345 WAT       0.0601
  21346 WAT        22.6590   34.5940   12.0910 O      21346 WAT       0.1215
  21347 WAT        22.6590   34.5940   12.3410 O      21347 WAT       0.1829
  21348 WAT        22.6590   34.5940   12.5910 O      21348 WAT       0.2087
  21349 WAT        22.6590   34.5940   12.8410 O      21349 WAT       0.1837
  21350 WAT        22.6590   34.5940   13.0910 O      21350 WAT       0.1266
  21351 WAT        22.6590   34.5940   13.3410 O      21351 WAT       0.0690
  21352 WAT        22.6590   34.5940   15.3410 O      21352 WAT       0.0745
  21353 WAT        22.6590   34.5940   15.5910 O      21353 WAT       0.1103
  21354 WAT        22.6590   34.5940   15.8410 O      21354 WAT       0.1351
  21355 WAT        22.6590   34.5940   16.0910 O      21355 WAT       0.1305
  21356 WAT        22.6590   34.5940   16.3410 O      21356 WAT       0.0951
  21357 WAT        22.6590   34.5940   16.5910 O      21357 WAT       0.0512
  21358 WAT        22.6590   34.5940   25.5910 O      21358 WAT       0.0451
  21359 WAT        22.6590   34.5940   25.8410 O      21359 WAT       0.0480
  21360 WAT        22.6590   34.5940   26.0910 O      21360 WAT       0.0490
  21361 WAT        22.6590   34.5940   26.3410 O      21361 WAT       0.0469
  21362 WAT        22.6590   34.8440   11.8410 O      21362 WAT       0.0531
  21363 WAT        22.6590   34.8440   12.0910 O      21363 WAT       0.1227
  21364 WAT        22.6590   34.8440   12.3410 O      21364 WAT       0.2111
  21365 WAT        22.6590   34.8440   12.5910 O      21365 WAT       0.2749
  21366 WAT        22.6590   34.8440   12.8410 O      21366 WAT       0.2749
  21367 WAT        22.6590   34.8440   13.0910 O      21367 WAT       0.2136
  21368 WAT        22.6590   34.8440   13.3410 O      21368 WAT       0.1304
  21369 WAT        22.6590   34.8440   13.5910 O      21369 WAT       0.0638
  21370 WAT        22.6590   34.8440   15.0910 O      21370 WAT       0.0821
  21371 WAT        22.6590   34.8440   15.3410 O      21371 WAT       0.1309
  21372 WAT        22.6590   34.8440   15.5910 O      21372 WAT       0.1768
  21373 WAT        22.6590   34.8440   15.8410 O      21373 WAT       0.1974
  21374 WAT        22.6590   34.8440   16.0910 O      21374 WAT       0.1760
  21375 WAT        22.6590   34.8440   16.3410 O      21375 WAT       0.1216
  21376 WAT        22.6590   34.8440   16.5910 O      21376 WAT       0.0650
  21377 WAT        22.6590   34.8440   24.8410 O      21377 WAT       0.0533
  21378 WAT        22.6590   34.8440   25.0910 O      21378 WAT       0.0634
  21379 WAT        22.6590   34.8440   25.3410 O      21379 WAT       0.0688
  21380 WAT        22.6590   34.8440   25.5910 O      21380 WAT       0.0696
  21381 WAT        22.6590   34.8440   25.8410 O      21381 WAT       0.0673
  21382 WAT        22.6590   34.8440   26.0910 O      21382 WAT       0.0627
  21383 WAT        22.6590   34.8440   26.3410 O      21383 WAT       0.0552
  21384 WAT        22.6590   34.8440   26.5910 O      21384 WAT       0.0452
  21385 WAT        22.6590   35.0940   12.0910 O      21385 WAT       0.0891
  21386 WAT        22.6590   35.0940   12.3410 O      21386 WAT       0.1723
  21387 WAT        22.6590   35.0940   12.5910 O      21387 WAT       0.2508
  21388 WAT        22.6590   35.0940   12.8410 O      21388 WAT       0.2787
  21389 WAT        22.6590   35.0940   13.0910 O      21389 WAT       0.2387
  21390 WAT        22.6590   35.0940   13.3410 O      21390 WAT       0.1594
  21391 WAT        22.6590   35.0940   13.5910 O      21391 WAT       0.0847
  21392 WAT        22.6590   35.0940   14.8410 O      21392 WAT       0.0559
  21393 WAT        22.6590   35.0940   15.0910 O      21393 WAT       0.0984
  21394 WAT        22.6590   35.0940   15.3410 O      21394 WAT       0.1480
  21395 WAT        22.6590   35.0940   15.5910 O      21395 WAT       0.1862
  21396 WAT        22.6590   35.0940   15.8410 O      21396 WAT       0.1925
  21397 WAT        22.6590   35.0940   16.0910 O      21397 WAT       0.1603
  21398 WAT        22.6590   35.0940   16.3410 O      21398 WAT       0.1063
  21399 WAT        22.6590   35.0940   16.5910 O      21399 WAT       0.0577
  21400 WAT        22.6590   35.0940   24.5910 O      21400 WAT       0.0550
  21401 WAT        22.6590   35.0940   24.8410 O      21401 WAT       0.0690
  21402 WAT        22.6590   35.0940   25.0910 O      21402 WAT       0.0778
  21403 WAT        22.6590   35.0940   25.3410 O      21403 WAT       0.0796
  21404 WAT        22.6590   35.0940   25.5910 O      21404 WAT       0.0750
  21405 WAT        22.6590   35.0940   25.8410 O      21405 WAT       0.0667
  21406 WAT        22.6590   35.0940   26.0910 O      21406 WAT       0.0570
  21407 WAT        22.6590   35.0940   26.3410 O      21407 WAT       0.0463
  21408 WAT        22.6590   35.3440   12.0910 O      21408 WAT       0.0453
  21409 WAT        22.6590   35.3440   12.3410 O      21409 WAT       0.0969
  21410 WAT        22.6590   35.3440   12.5910 O      21410 WAT       0.1546
  21411 WAT        22.6590   35.3440   12.8410 O      21411 WAT       0.1869
  21412 WAT        22.6590   35.3440   13.0910 O      21412 WAT       0.1729
  21413 WAT        22.6590   35.3440   13.3410 O      21413 WAT       0.1239
  21414 WAT        22.6590   35.3440   13.5910 O      21414 WAT       0.0702
  21415 WAT        22.6590   35.3440   15.0910 O      21415 WAT       0.0738
  21416 WAT        22.6590   35.3440   15.3410 O      21416 WAT       0.1063
  21417 WAT        22.6590   35.3440   15.5910 O      21417 WAT       0.1267
  21418 WAT        22.6590   35.3440   15.8410 O      21418 WAT       0.1233
  21419 WAT        22.6590   35.3440   16.0910 O      21419 WAT       0.0973
  21420 WAT        22.6590   35.3440   16.3410 O      21420 WAT       0.0628
  21421 WAT        22.6590   35.3440   24.5910 O      21421 WAT       0.0476
  21422 WAT        22.6590   35.3440   24.8410 O      21422 WAT       0.0577
  21423 WAT        22.6590   35.3440   25.0910 O      21423 WAT       0.0626
  21424 WAT        22.6590   35.3440   25.3410 O      21424 WAT       0.0611
  21425 WAT        22.6590   35.3440   25.5910 O      21425 WAT       0.0544
  21426 WAT        22.6590   35.3440   25.8410 O      21426 WAT       0.0451
  21427 WAT        22.9090    8.3440   17.0910 O      21427 WAT       0.0477
  21428 WAT        22.9090    8.3440   17.3410 O      21428 WAT       0.0474
  21429 WAT        22.9090    8.3440   25.0910 O      21429 WAT       0.0462
  21430 WAT        22.9090    8.3440   25.3410 O      21430 WAT       0.0552
  21431 WAT        22.9090    8.3440   25.5910 O      21431 WAT       0.0631
  21432 WAT        22.9090    8.3440   25.8410 O      21432 WAT       0.0654
  21433 WAT        22.9090    8.3440   26.0910 O      21433 WAT       0.0583
  21434 WAT        22.9090    8.5940   16.8410 O      21434 WAT       0.0474
  21435 WAT        22.9090    8.5940   17.0910 O      21435 WAT       0.0541
  21436 WAT        22.9090    8.5940   17.3410 O      21436 WAT       0.0542
  21437 WAT        22.9090    8.5940   17.5910 O      21437 WAT       0.0459
  21438 WAT        22.9090    8.5940   25.0910 O      21438 WAT       0.0477
  21439 WAT        22.9090    8.5940   25.3410 O      21439 WAT       0.0583
  21440 WAT        22.9090    8.5940   25.5910 O      21440 WAT       0.0653
  21441 WAT        22.9090    8.5940   25.8410 O      21441 WAT       0.0644
  21442 WAT        22.9090    8.5940   26.0910 O      21442 WAT       0.0539
  21443 WAT        22.9090    8.8440   16.8410 O      21443 WAT       0.0463
  21444 WAT        22.9090    8.8440   17.0910 O      21444 WAT       0.0548
  21445 WAT        22.9090    8.8440   17.3410 O      21445 WAT       0.0564
  21446 WAT        22.9090    8.8440   17.5910 O      21446 WAT       0.0485
  21447 WAT        22.9090    8.8440   25.3410 O      21447 WAT       0.0482
  21448 WAT        22.9090    8.8440   25.5910 O      21448 WAT       0.0530
  21449 WAT        22.9090    8.8440   25.8410 O      21449 WAT       0.0499
  21450 WAT        22.9090    9.0940   17.0910 O      21450 WAT       0.0510
  21451 WAT        22.9090    9.0940   17.3410 O      21451 WAT       0.0548
  21452 WAT        22.9090    9.0940   17.5910 O      21452 WAT       0.0493
  21453 WAT        22.9090    9.0940   27.8410 O      21453 WAT       0.0506
  21454 WAT        22.9090    9.0940   28.0910 O      21454 WAT       0.0572
  21455 WAT        22.9090    9.3440   17.3410 O      21455 WAT       0.0504
  21456 WAT        22.9090    9.3440   17.5910 O      21456 WAT       0.0488
  21457 WAT        22.9090    9.3440   27.5910 O      21457 WAT       0.0590
  21458 WAT        22.9090    9.3440   27.8410 O      21458 WAT       0.0898
  21459 WAT        22.9090    9.3440   28.0910 O      21459 WAT       0.0926
  21460 WAT        22.9090    9.3440   28.3410 O      21460 WAT       0.0653
  21461 WAT        22.9090    9.5940   17.5910 O      21461 WAT       0.0469
  21462 WAT        22.9090    9.5940   27.3410 O      21462 WAT       0.0456
  21463 WAT        22.9090    9.5940   27.5910 O      21463 WAT       0.0987
  21464 WAT        22.9090    9.5940   27.8410 O      21464 WAT       0.1419
  21465 WAT        22.9090    9.5940   28.0910 O      21465 WAT       0.1366
  21466 WAT        22.9090    9.5940   28.3410 O      21466 WAT       0.0884
  21467 WAT        22.9090    9.8440   27.3410 O      21467 WAT       0.0672
  21468 WAT        22.9090    9.8440   27.5910 O      21468 WAT       0.1398
  21469 WAT        22.9090    9.8440   27.8410 O      21469 WAT       0.1929
  21470 WAT        22.9090    9.8440   28.0910 O      21470 WAT       0.1766
  21471 WAT        22.9090    9.8440   28.3410 O      21471 WAT       0.1071
  21472 WAT        22.9090   10.0940   27.3410 O      21472 WAT       0.0815
  21473 WAT        22.9090   10.0940   27.5910 O      21473 WAT       0.1651
  21474 WAT        22.9090   10.0940   27.8410 O      21474 WAT       0.2212
  21475 WAT        22.9090   10.0940   28.0910 O      21475 WAT       0.1949
  21476 WAT        22.9090   10.0940   28.3410 O      21476 WAT       0.1124
  21477 WAT        22.9090   10.3440   27.3410 O      21477 WAT       0.0809
  21478 WAT        22.9090   10.3440   27.5910 O      21478 WAT       0.1610
  21479 WAT        22.9090   10.3440   27.8410 O      21479 WAT       0.2111
  21480 WAT        22.9090   10.3440   28.0910 O      21480 WAT       0.1808
  21481 WAT        22.9090   10.3440   28.3410 O      21481 WAT       0.1003
  21482 WAT        22.9090   10.5940   15.3410 O      21482 WAT       0.0467
  21483 WAT        22.9090   10.5940   15.5910 O      21483 WAT       0.0548
  21484 WAT        22.9090   10.5940   15.8410 O      21484 WAT       0.0568
  21485 WAT        22.9090   10.5940   16.0910 O      21485 WAT       0.0525
  21486 WAT        22.9090   10.5940   27.3410 O      21486 WAT       0.0648
  21487 WAT        22.9090   10.5940   27.5910 O      21487 WAT       0.1271
  21488 WAT        22.9090   10.5940   27.8410 O      21488 WAT       0.1643
  21489 WAT        22.9090   10.5940   28.0910 O      21489 WAT       0.1381
  21490 WAT        22.9090   10.5940   28.3410 O      21490 WAT       0.0746
  21491 WAT        22.9090   10.8440   15.0910 O      21491 WAT       0.0477
  21492 WAT        22.9090   10.8440   15.3410 O      21492 WAT       0.0635
  21493 WAT        22.9090   10.8440   15.5910 O      21493 WAT       0.0741
  21494 WAT        22.9090   10.8440   15.8410 O      21494 WAT       0.0758
  21495 WAT        22.9090   10.8440   16.0910 O      21495 WAT       0.0675
  21496 WAT        22.9090   10.8440   16.3410 O      21496 WAT       0.0517
  21497 WAT        22.9090   10.8440   27.5910 O      21497 WAT       0.0791
  21498 WAT        22.9090   10.8440   27.8410 O      21498 WAT       0.1012
  21499 WAT        22.9090   10.8440   28.0910 O      21499 WAT       0.0842
  21500 WAT        22.9090   11.0940   15.0910 O      21500 WAT       0.0597
  21501 WAT        22.9090   11.0940   15.3410 O      21501 WAT       0.0795
  21502 WAT        22.9090   11.0940   15.5910 O      21502 WAT       0.0924
  21503 WAT        22.9090   11.0940   15.8410 O      21503 WAT       0.0929
  21504 WAT        22.9090   11.0940   16.0910 O      21504 WAT       0.0798
  21505 WAT        22.9090   11.0940   16.3410 O      21505 WAT       0.0574
  21506 WAT        22.9090   11.0940   27.8410 O      21506 WAT       0.0479
  21507 WAT        22.9090   11.3440   14.8410 O      21507 WAT       0.0467
  21508 WAT        22.9090   11.3440   15.0910 O      21508 WAT       0.0696
  21509 WAT        22.9090   11.3440   15.3410 O      21509 WAT       0.0925
  21510 WAT        22.9090   11.3440   15.5910 O      21510 WAT       0.1067
  21511 WAT        22.9090   11.3440   15.8410 O      21511 WAT       0.1052
  21512 WAT        22.9090   11.3440   16.0910 O      21512 WAT       0.0866
  21513 WAT        22.9090   11.3440   16.3410 O      21513 WAT       0.0584
  21514 WAT        22.9090   11.5940   14.8410 O      21514 WAT       0.0518
  21515 WAT        22.9090   11.5940   15.0910 O      21515 WAT       0.0755
  21516 WAT        22.9090   11.5940   15.3410 O      21516 WAT       0.0991
  21517 WAT        22.9090   11.5940   15.5910 O      21517 WAT       0.1128
  21518 WAT        22.9090   11.5940   15.8410 O      21518 WAT       0.1081
  21519 WAT        22.9090   11.5940   16.0910 O      21519 WAT       0.0852
  21520 WAT        22.9090   11.5940   16.3410 O      21520 WAT       0.0541
  21521 WAT        22.9090   11.8440   14.8410 O      21521 WAT       0.0538
  21522 WAT        22.9090   11.8440   15.0910 O      21522 WAT       0.0744
  21523 WAT        22.9090   11.8440   15.3410 O      21523 WAT       0.0948
  21524 WAT        22.9090   11.8440   15.5910 O      21524 WAT       0.1050
  21525 WAT        22.9090   11.8440   15.8410 O      21525 WAT       0.0973
  21526 WAT        22.9090   11.8440   16.0910 O      21526 WAT       0.0733
  21527 WAT        22.9090   12.0940   12.5910 O      21527 WAT       0.0481
  21528 WAT        22.9090   12.0940   12.8410 O      21528 WAT       0.0524
  21529 WAT        22.9090   12.0940   13.0910 O      21529 WAT       0.0531
  21530 WAT        22.9090   12.0940   13.3410 O      21530 WAT       0.0498
  21531 WAT        22.9090   12.0940   14.8410 O      21531 WAT       0.0505
  21532 WAT        22.9090   12.0940   15.0910 O      21532 WAT       0.0635
  21533 WAT        22.9090   12.0940   15.3410 O      21533 WAT       0.0764
  21534 WAT        22.9090   12.0940   15.5910 O      21534 WAT       0.0812
  21535 WAT        22.9090   12.0940   15.8410 O      21535 WAT       0.0722
  21536 WAT        22.9090   12.0940   16.0910 O      21536 WAT       0.0524
  21537 WAT        22.9090   12.3440   11.8410 O      21537 WAT       0.0489
  21538 WAT        22.9090   12.3440   12.0910 O      21538 WAT       0.0573
  21539 WAT        22.9090   12.3440   12.3410 O      21539 WAT       0.0682
  21540 WAT        22.9090   12.3440   12.5910 O      21540 WAT       0.0796
  21541 WAT        22.9090   12.3440   12.8410 O      21541 WAT       0.0882
  21542 WAT        22.9090   12.3440   13.0910 O      21542 WAT       0.0905
  21543 WAT        22.9090   12.3440   13.3410 O      21543 WAT       0.0848
  21544 WAT        22.9090   12.3440   13.5910 O      21544 WAT       0.0736
  21545 WAT        22.9090   12.3440   13.8410 O      21545 WAT       0.0614
  21546 WAT        22.9090   12.3440   14.0910 O      21546 WAT       0.0513
  21547 WAT        22.9090   12.3440   15.3410 O      21547 WAT       0.0487
  21548 WAT        22.9090   12.3440   15.5910 O      21548 WAT       0.0489
  21549 WAT        22.9090   12.5940   10.8410 O      21549 WAT       0.0512
  21550 WAT        22.9090   12.5940   11.0910 O      21550 WAT       0.0542
  21551 WAT        22.9090   12.5940   11.3410 O      21551 WAT       0.0552
  21552 WAT        22.9090   12.5940   11.5910 O      21552 WAT       0.0575
  21553 WAT        22.9090   12.5940   11.8410 O      21553 WAT       0.0636
  21554 WAT        22.9090   12.5940   12.0910 O      21554 WAT       0.0745
  21555 WAT        22.9090   12.5940   12.3410 O      21555 WAT       0.0894
  21556 WAT        22.9090   12.5940   12.5910 O      21556 WAT       0.1057
  21557 WAT        22.9090   12.5940   12.8410 O      21557 WAT       0.1182
  21558 WAT        22.9090   12.5940   13.0910 O      21558 WAT       0.1211
  21559 WAT        22.9090   12.5940   13.3410 O      21559 WAT       0.1116
  21560 WAT        22.9090   12.5940   13.5910 O      21560 WAT       0.0927
  21561 WAT        22.9090   12.5940   13.8410 O      21561 WAT       0.0714
  21562 WAT        22.9090   12.5940   14.0910 O      21562 WAT       0.0531
  21563 WAT        22.9090   12.8440   10.3410 O      21563 WAT       0.0466
  21564 WAT        22.9090   12.8440   10.5910 O      21564 WAT       0.0569
  21565 WAT        22.9090   12.8440   10.8410 O      21565 WAT       0.0618
  21566 WAT        22.9090   12.8440   11.0910 O      21566 WAT       0.0609
  21567 WAT        22.9090   12.8440   11.3410 O      21567 WAT       0.0574
  21568 WAT        22.9090   12.8440   11.5910 O      21568 WAT       0.0561
  21569 WAT        22.9090   12.8440   11.8410 O      21569 WAT       0.0600
  21570 WAT        22.9090   12.8440   12.0910 O      21570 WAT       0.0696
  21571 WAT        22.9090   12.8440   12.3410 O      21571 WAT       0.0840
  21572 WAT        22.9090   12.8440   12.5910 O      21572 WAT       0.1005
  21573 WAT        22.9090   12.8440   12.8410 O      21573 WAT       0.1133
  21574 WAT        22.9090   12.8440   13.0910 O      21574 WAT       0.1156
  21575 WAT        22.9090   12.8440   13.3410 O      21575 WAT       0.1043
  21576 WAT        22.9090   12.8440   13.5910 O      21576 WAT       0.0826
  21577 WAT        22.9090   12.8440   13.8410 O      21577 WAT       0.0587
  21578 WAT        22.9090   13.0940   10.3410 O      21578 WAT       0.0530
  21579 WAT        22.9090   13.0940   10.5910 O      21579 WAT       0.0579
  21580 WAT        22.9090   13.0940   10.8410 O      21580 WAT       0.0561
  21581 WAT        22.9090   13.0940   11.0910 O      21581 WAT       0.0496
  21582 WAT        22.9090   13.0940   12.3410 O      21582 WAT       0.0541
  21583 WAT        22.9090   13.0940   12.5910 O      21583 WAT       0.0657
  21584 WAT        22.9090   13.0940   12.8410 O      21584 WAT       0.0749
  21585 WAT        22.9090   13.0940   13.0910 O      21585 WAT       0.0762
  21586 WAT        22.9090   13.0940   13.3410 O      21586 WAT       0.0671
  21587 WAT        22.9090   13.0940   13.5910 O      21587 WAT       0.0506
  21588 WAT        22.9090   13.3440   10.0910 O      21588 WAT       0.0455
  21589 WAT        22.9090   13.3440   10.3410 O      21589 WAT       0.0479
  21590 WAT        22.9090   15.0940    8.8410 O      21590 WAT       0.0472
  21591 WAT        22.9090   15.0940    9.0910 O      21591 WAT       0.0545
  21592 WAT        22.9090   15.0940    9.3410 O      21592 WAT       0.0505
  21593 WAT        22.9090   15.0940   19.5910 O      21593 WAT       0.0464
  21594 WAT        22.9090   15.0940   19.8410 O      21594 WAT       0.0692
  21595 WAT        22.9090   15.0940   20.0910 O      21595 WAT       0.0657
  21596 WAT        22.9090   15.3440    8.5910 O      21596 WAT       0.0469
  21597 WAT        22.9090   15.3440    8.8410 O      21597 WAT       0.0582
  21598 WAT        22.9090   15.3440    9.0910 O      21598 WAT       0.0640
  21599 WAT        22.9090   15.3440    9.3410 O      21599 WAT       0.0568
  21600 WAT        22.9090   15.3440   19.3410 O      21600 WAT       0.0508
  21601 WAT        22.9090   15.3440   19.5910 O      21601 WAT       0.1198
  21602 WAT        22.9090   15.3440   19.8410 O      21602 WAT       0.1822
  21603 WAT        22.9090   15.3440   20.0910 O      21603 WAT       0.1774
  21604 WAT        22.9090   15.3440   20.3410 O      21604 WAT       0.1094
  21605 WAT        22.9090   15.5940    8.3410 O      21605 WAT       0.0470
  21606 WAT        22.9090   15.5940    8.5910 O      21606 WAT       0.0571
  21607 WAT        22.9090   15.5940    8.8410 O      21607 WAT       0.0666
  21608 WAT        22.9090   15.5940    9.0910 O      21608 WAT       0.0696
  21609 WAT        22.9090   15.5940    9.3410 O      21609 WAT       0.0593
  21610 WAT        22.9090   15.5940   19.3410 O      21610 WAT       0.0889
  21611 WAT        22.9090   15.5940   19.5910 O      21611 WAT       0.2153
  21612 WAT        22.9090   15.5940   19.8410 O      21612 WAT       0.3364
  21613 WAT        22.9090   15.5940   20.0910 O      21613 WAT       0.3370
  21614 WAT        22.9090   15.5940   20.3410 O      21614 WAT       0.2148
  21615 WAT        22.9090   15.5940   20.5910 O      21615 WAT       0.0860
  21616 WAT        22.9090   15.8440    8.0910 O      21616 WAT       0.0462
  21617 WAT        22.9090   15.8440    8.3410 O      21617 WAT       0.0554
  21618 WAT        22.9090   15.8440    8.5910 O      21618 WAT       0.0636
  21619 WAT        22.9090   15.8440    8.8410 O      21619 WAT       0.0694
  21620 WAT        22.9090   15.8440    9.0910 O      21620 WAT       0.0682
  21621 WAT        22.9090   15.8440    9.3410 O      21621 WAT       0.0557
  21622 WAT        22.9090   15.8440   19.3410 O      21622 WAT       0.1093
  21623 WAT        22.9090   15.8440   19.5910 O      21623 WAT       0.2728
  21624 WAT        22.9090   15.8440   19.8410 O      21624 WAT       0.4398
  21625 WAT        22.9090   15.8440   20.0910 O      21625 WAT       0.4552
  21626 WAT        22.9090   15.8440   20.3410 O      21626 WAT       0.3003
  21627 WAT        22.9090   15.8440   20.5910 O      21627 WAT       0.1255
  21628 WAT        22.9090   16.0940    8.0910 O      21628 WAT       0.0494
  21629 WAT        22.9090   16.0940    8.3410 O      21629 WAT       0.0573
  21630 WAT        22.9090   16.0940    8.5910 O      21630 WAT       0.0620
  21631 WAT        22.9090   16.0940    8.8410 O      21631 WAT       0.0632
  21632 WAT        22.9090   16.0940    9.0910 O      21632 WAT       0.0583
  21633 WAT        22.9090   16.0940    9.3410 O      21633 WAT       0.0455
  21634 WAT        22.9090   16.0940   19.3410 O      21634 WAT       0.0953
  21635 WAT        22.9090   16.0940   19.5910 O      21635 WAT       0.2458
  21636 WAT        22.9090   16.0940   19.8410 O      21636 WAT       0.4096
  21637 WAT        22.9090   16.0940   20.0910 O      21637 WAT       0.4388
  21638 WAT        22.9090   16.0940   20.3410 O      21638 WAT       0.3003
  21639 WAT        22.9090   16.0940   20.5910 O      21639 WAT       0.1304
  21640 WAT        22.9090   16.3440    8.3410 O      21640 WAT       0.0491
  21641 WAT        22.9090   16.3440    8.5910 O      21641 WAT       0.0502
  21642 WAT        22.9090   16.3440    8.8410 O      21642 WAT       0.0475
  21643 WAT        22.9090   16.3440   19.3410 O      21643 WAT       0.0591
  21644 WAT        22.9090   16.3440   19.5910 O      21644 WAT       0.1582
  21645 WAT        22.9090   16.3440   19.8410 O      21645 WAT       0.2722
  21646 WAT        22.9090   16.3440   20.0910 O      21646 WAT       0.3018
  21647 WAT        22.9090   16.3440   20.3410 O      21647 WAT       0.2142
  21648 WAT        22.9090   16.3440   20.5910 O      21648 WAT       0.0962
  21649 WAT        22.9090   16.5940   19.5910 O      21649 WAT       0.0723
  21650 WAT        22.9090   16.5940   19.8410 O      21650 WAT       0.1284
  21651 WAT        22.9090   16.5940   20.0910 O      21651 WAT       0.1468
  21652 WAT        22.9090   16.5940   20.3410 O      21652 WAT       0.1074
  21653 WAT        22.9090   16.5940   20.5910 O      21653 WAT       0.0493
  21654 WAT        22.9090   16.8440   20.0910 O      21654 WAT       0.0491
  21655 WAT        22.9090   17.0940    3.0910 O      21655 WAT       0.0472
  21656 WAT        22.9090   17.0940    3.3410 O      21656 WAT       0.0503
  21657 WAT        22.9090   17.0940    3.5910 O      21657 WAT       0.0502
  21658 WAT        22.9090   17.0940    3.8410 O      21658 WAT       0.0465
  21659 WAT        22.9090   17.3440    2.8410 O      21659 WAT       0.0473
  21660 WAT        22.9090   17.3440    3.0910 O      21660 WAT       0.0517
  21661 WAT        22.9090   17.3440    3.3410 O      21661 WAT       0.0530
  21662 WAT        22.9090   17.3440    3.5910 O      21662 WAT       0.0508
  21663 WAT        22.9090   17.3440    3.8410 O      21663 WAT       0.0452
  21664 WAT        22.9090   17.5940    2.8410 O      21664 WAT       0.0466
  21665 WAT        22.9090   17.5940    3.0910 O      21665 WAT       0.0483
  21666 WAT        22.9090   17.5940    3.3410 O      21666 WAT       0.0466
  21667 WAT        22.9090   17.5940    5.5910 O      21667 WAT       0.0464
  21668 WAT        22.9090   17.5940    5.8410 O      21668 WAT       0.0518
  21669 WAT        22.9090   17.5940    6.0910 O      21669 WAT       0.0524
  21670 WAT        22.9090   17.5940    6.3410 O      21670 WAT       0.0465
  21671 WAT        22.9090   17.8440    5.8410 O      21671 WAT       0.0501
  21672 WAT        22.9090   17.8440    6.0910 O      21672 WAT       0.0525
  21673 WAT        22.9090   17.8440    6.3410 O      21673 WAT       0.0470
  21674 WAT        22.9090   22.3440   29.3410 O      21674 WAT       0.0562
  21675 WAT        22.9090   22.3440   29.5910 O      21675 WAT       0.0513
  21676 WAT        22.9090   22.5940   29.0910 O      21676 WAT       0.0918
  21677 WAT        22.9090   22.5940   29.3410 O      21677 WAT       0.1320
  21678 WAT        22.9090   22.5940   29.5910 O      21678 WAT       0.1176
  21679 WAT        22.9090   22.8440   28.8410 O      21679 WAT       0.0671
  21680 WAT        22.9090   22.8440   29.0910 O      21680 WAT       0.1474
  21681 WAT        22.9090   22.8440   29.3410 O      21681 WAT       0.2052
  21682 WAT        22.9090   22.8440   29.5910 O      21682 WAT       0.1780
  21683 WAT        22.9090   23.0940   28.8410 O      21683 WAT       0.0741
  21684 WAT        22.9090   23.0940   29.0910 O      21684 WAT       0.1568
  21685 WAT        22.9090   23.0940   29.3410 O      21685 WAT       0.2112
  21686 WAT        22.9090   23.0940   29.5910 O      21686 WAT       0.1784
  21687 WAT        22.9090   23.3440   28.8410 O      21687 WAT       0.0539
  21688 WAT        22.9090   23.3440   29.0910 O      21688 WAT       0.1103
  21689 WAT        22.9090   23.3440   29.3410 O      21689 WAT       0.1442
  21690 WAT        22.9090   23.3440   29.5910 O      21690 WAT       0.1186
  21691 WAT        22.9090   23.5940   29.0910 O      21691 WAT       0.0514
  21692 WAT        22.9090   23.5940   29.3410 O      21692 WAT       0.0655
  21693 WAT        22.9090   23.5940   29.5910 O      21693 WAT       0.0526
  21694 WAT        22.9090   25.5940   18.0910 O      21694 WAT       0.0509
  21695 WAT        22.9090   25.5940   18.3410 O      21695 WAT       0.0695
  21696 WAT        22.9090   25.5940   18.5910 O      21696 WAT       0.0759
  21697 WAT        22.9090   25.5940   18.8410 O      21697 WAT       0.0650
  21698 WAT        22.9090   25.5940   21.0910 O      21698 WAT       0.0507
  21699 WAT        22.9090   25.5940   21.3410 O      21699 WAT       0.0549
  21700 WAT        22.9090   25.5940   21.5910 O      21700 WAT       0.0524
  21701 WAT        22.9090   25.8440   17.5910 O      21701 WAT       0.0564
  21702 WAT        22.9090   25.8440   17.8410 O      21702 WAT       0.0947
  21703 WAT        22.9090   25.8440   18.0910 O      21703 WAT       0.1320
  21704 WAT        22.9090   25.8440   18.3410 O      21704 WAT       0.1537
  21705 WAT        22.9090   25.8440   18.5910 O      21705 WAT       0.1458
  21706 WAT        22.9090   25.8440   18.8410 O      21706 WAT       0.1093
  21707 WAT        22.9090   25.8440   19.0910 O      21707 WAT       0.0634
  21708 WAT        22.9090   25.8440   20.5910 O      21708 WAT       0.0575
  21709 WAT        22.9090   25.8440   20.8410 O      21709 WAT       0.0756
  21710 WAT        22.9090   25.8440   21.0910 O      21710 WAT       0.0834
  21711 WAT        22.9090   25.8440   21.3410 O      21711 WAT       0.0790
  21712 WAT        22.9090   25.8440   21.5910 O      21712 WAT       0.0654
  21713 WAT        22.9090   25.8440   21.8410 O      21713 WAT       0.0485
  21714 WAT        22.9090   26.0940   17.3410 O      21714 WAT       0.0691
  21715 WAT        22.9090   26.0940   17.5910 O      21715 WAT       0.1290
  21716 WAT        22.9090   26.0940   17.8410 O      21716 WAT       0.1892
  21717 WAT        22.9090   26.0940   18.0910 O      21717 WAT       0.2274
  21718 WAT        22.9090   26.0940   18.3410 O      21718 WAT       0.2286
  21719 WAT        22.9090   26.0940   18.5910 O      21719 WAT       0.1898
  21720 WAT        22.9090   26.0940   18.8410 O      21720 WAT       0.1264
  21721 WAT        22.9090   26.0940   19.0910 O      21721 WAT       0.0659
  21722 WAT        22.9090   26.0940   20.3410 O      21722 WAT       0.0626
  21723 WAT        22.9090   26.0940   20.5910 O      21723 WAT       0.0964
  21724 WAT        22.9090   26.0940   20.8410 O      21724 WAT       0.1183
  21725 WAT        22.9090   26.0940   21.0910 O      21725 WAT       0.1188
  21726 WAT        22.9090   26.0940   21.3410 O      21726 WAT       0.1002
  21727 WAT        22.9090   26.0940   21.5910 O      21727 WAT       0.0730
  21728 WAT        22.9090   26.0940   21.8410 O      21728 WAT       0.0471
  21729 WAT        22.9090   26.0940   29.0910 O      21729 WAT       0.0469
  21730 WAT        22.9090   26.3440   17.0910 O      21730 WAT       0.0484
  21731 WAT        22.9090   26.3440   17.3410 O      21731 WAT       0.1114
  21732 WAT        22.9090   26.3440   17.5910 O      21732 WAT       0.1906
  21733 WAT        22.9090   26.3440   17.8410 O      21733 WAT       0.2506
  21734 WAT        22.9090   26.3440   18.0910 O      21734 WAT       0.2641
  21735 WAT        22.9090   26.3440   18.3410 O      21735 WAT       0.2307
  21736 WAT        22.9090   26.3440   18.5910 O      21736 WAT       0.1681
  21737 WAT        22.9090   26.3440   18.8410 O      21737 WAT       0.1001
  21738 WAT        22.9090   26.3440   19.0910 O      21738 WAT       0.0479
  21739 WAT        22.9090   26.3440   20.0910 O      21739 WAT       0.0455
  21740 WAT        22.9090   26.3440   20.3410 O      21740 WAT       0.0847
  21741 WAT        22.9090   26.3440   20.5910 O      21741 WAT       0.1244
  21742 WAT        22.9090   26.3440   20.8410 O      21742 WAT       0.1439
  21743 WAT        22.9090   26.3440   21.0910 O      21743 WAT       0.1340
  21744 WAT        22.9090   26.3440   21.3410 O      21744 WAT       0.1032
  21745 WAT        22.9090   26.3440   21.5910 O      21745 WAT       0.0673
  21746 WAT        22.9090   26.3440   28.5910 O      21746 WAT       0.0684
  21747 WAT        22.9090   26.3440   28.8410 O      21747 WAT       0.1069
  21748 WAT        22.9090   26.3440   29.0910 O      21748 WAT       0.1150
  21749 WAT        22.9090   26.3440   29.3410 O      21749 WAT       0.0861
  21750 WAT        22.9090   26.5940   17.0910 O      21750 WAT       0.0530
  21751 WAT        22.9090   26.5940   17.3410 O      21751 WAT       0.1150
  21752 WAT        22.9090   26.5940   17.5910 O      21752 WAT       0.1833
  21753 WAT        22.9090   26.5940   17.8410 O      21753 WAT       0.2205
  21754 WAT        22.9090   26.5940   18.0910 O      21754 WAT       0.2077
  21755 WAT        22.9090   26.5940   18.3410 O      21755 WAT       0.1596
  21756 WAT        22.9090   26.5940   18.5910 O      21756 WAT       0.1025
  21757 WAT        22.9090   26.5940   18.8410 O      21757 WAT       0.0549
  21758 WAT        22.9090   26.5940   20.0910 O      21758 WAT       0.0472
  21759 WAT        22.9090   26.5940   20.3410 O      21759 WAT       0.0836
  21760 WAT        22.9090   26.5940   20.5910 O      21760 WAT       0.1169
  21761 WAT        22.9090   26.5940   20.8410 O      21761 WAT       0.1283
  21762 WAT        22.9090   26.5940   21.0910 O      21762 WAT       0.1123
  21763 WAT        22.9090   26.5940   21.3410 O      21763 WAT       0.0802
  21764 WAT        22.9090   26.5940   21.5910 O      21764 WAT       0.0476
  21765 WAT        22.9090   26.5940   28.3410 O      21765 WAT       0.0584
  21766 WAT        22.9090   26.5940   28.5910 O      21766 WAT       0.1290
  21767 WAT        22.9090   26.5940   28.8410 O      21767 WAT       0.1943
  21768 WAT        22.9090   26.5940   29.0910 O      21768 WAT       0.2024
  21769 WAT        22.9090   26.5940   29.3410 O      21769 WAT       0.1472
  21770 WAT        22.9090   26.5940   29.5910 O      21770 WAT       0.0745
  21771 WAT        22.9090   26.8440   17.3410 O      21771 WAT       0.0768
  21772 WAT        22.9090   26.8440   17.5910 O      21772 WAT       0.1156
  21773 WAT        22.9090   26.8440   17.8410 O      21773 WAT       0.1295
  21774 WAT        22.9090   26.8440   18.0910 O      21774 WAT       0.1115
  21775 WAT        22.9090   26.8440   18.3410 O      21775 WAT       0.0768
  21776 WAT        22.9090   26.8440   20.3410 O      21776 WAT       0.0589
  21777 WAT        22.9090   26.8440   20.5910 O      21777 WAT       0.0779
  21778 WAT        22.9090   26.8440   20.8410 O      21778 WAT       0.0809
  21779 WAT        22.9090   26.8440   21.0910 O      21779 WAT       0.0668
  21780 WAT        22.9090   26.8440   28.3410 O      21780 WAT       0.0811
  21781 WAT        22.9090   26.8440   28.5910 O      21781 WAT       0.1743
  21782 WAT        22.9090   26.8440   28.8410 O      21782 WAT       0.2562
  21783 WAT        22.9090   26.8440   29.0910 O      21783 WAT       0.2609
  21784 WAT        22.9090   26.8440   29.3410 O      21784 WAT       0.1859
  21785 WAT        22.9090   26.8440   29.5910 O      21785 WAT       0.0925
  21786 WAT        22.9090   27.0940   17.5910 O      21786 WAT       0.0484
  21787 WAT        22.9090   27.0940   17.8410 O      21787 WAT       0.0514
  21788 WAT        22.9090   27.0940   28.3410 O      21788 WAT       0.0801
  21789 WAT        22.9090   27.0940   28.5910 O      21789 WAT       0.1705
  21790 WAT        22.9090   27.0940   28.8410 O      21790 WAT       0.2482
  21791 WAT        22.9090   27.0940   29.0910 O      21791 WAT       0.2507
  21792 WAT        22.9090   27.0940   29.3410 O      21792 WAT       0.1774
  21793 WAT        22.9090   27.0940   29.5910 O      21793 WAT       0.0876
  21794 WAT        22.9090   27.3440   28.3410 O      21794 WAT       0.0565
  21795 WAT        22.9090   27.3440   28.5910 O      21795 WAT       0.1212
  21796 WAT        22.9090   27.3440   28.8410 O      21796 WAT       0.1780
  21797 WAT        22.9090   27.3440   29.0910 O      21797 WAT       0.1817
  21798 WAT        22.9090   27.3440   29.3410 O      21798 WAT       0.1300
  21799 WAT        22.9090   27.3440   29.5910 O      21799 WAT       0.0646
  21800 WAT        22.9090   27.5940   26.5910 O      21800 WAT       0.0492
  21801 WAT        22.9090   27.5940   28.5910 O      21801 WAT       0.0624
  21802 WAT        22.9090   27.5940   28.8410 O      21802 WAT       0.0945
  21803 WAT        22.9090   27.5940   29.0910 O      21803 WAT       0.0996
  21804 WAT        22.9090   27.5940   29.3410 O      21804 WAT       0.0733
  21805 WAT        22.9090   27.8440   26.3410 O      21805 WAT       0.0861
  21806 WAT        22.9090   27.8440   26.5910 O      21806 WAT       0.1213
  21807 WAT        22.9090   27.8440   26.8410 O      21807 WAT       0.1068
  21808 WAT        22.9090   27.8440   27.0910 O      21808 WAT       0.0591
  21809 WAT        22.9090   28.0940   26.0910 O      21809 WAT       0.0702
  21810 WAT        22.9090   28.0940   26.3410 O      21810 WAT       0.1600
  21811 WAT        22.9090   28.0940   26.5910 O      21811 WAT       0.2254
  21812 WAT        22.9090   28.0940   26.8410 O      21812 WAT       0.1983
  21813 WAT        22.9090   28.0940   27.0910 O      21813 WAT       0.1096
  21814 WAT        22.9090   28.3440   26.0910 O      21814 WAT       0.0982
  21815 WAT        22.9090   28.3440   26.3410 O      21815 WAT       0.2244
  21816 WAT        22.9090   28.3440   26.5910 O      21816 WAT       0.3166
  21817 WAT        22.9090   28.3440   26.8410 O      21817 WAT       0.2784
  21818 WAT        22.9090   28.3440   27.0910 O      21818 WAT       0.1534
  21819 WAT        22.9090   28.3440   27.3410 O      21819 WAT       0.0526
  21820 WAT        22.9090   28.5940   26.0910 O      21820 WAT       0.1027
  21821 WAT        22.9090   28.5940   26.3410 O      21821 WAT       0.2361
  21822 WAT        22.9090   28.5940   26.5910 O      21822 WAT       0.3345
  21823 WAT        22.9090   28.5940   26.8410 O      21823 WAT       0.2943
  21824 WAT        22.9090   28.5940   27.0910 O      21824 WAT       0.1615
  21825 WAT        22.9090   28.5940   27.3410 O      21825 WAT       0.0549
  21826 WAT        22.9090   28.8440   26.0910 O      21826 WAT       0.0793
  21827 WAT        22.9090   28.8440   26.3410 O      21827 WAT       0.1846
  21828 WAT        22.9090   28.8440   26.5910 O      21828 WAT       0.2629
  21829 WAT        22.9090   28.8440   26.8410 O      21829 WAT       0.2316
  21830 WAT        22.9090   28.8440   27.0910 O      21830 WAT       0.1266
  21831 WAT        22.9090   29.0940   26.3410 O      21831 WAT       0.1054
  21832 WAT        22.9090   29.0940   26.5910 O      21832 WAT       0.1514
  21833 WAT        22.9090   29.0940   26.8410 O      21833 WAT       0.1336
  21834 WAT        22.9090   29.0940   27.0910 O      21834 WAT       0.0725
  21835 WAT        22.9090   29.3440   26.5910 O      21835 WAT       0.0624
  21836 WAT        22.9090   29.3440   26.8410 O      21836 WAT       0.0551
  21837 WAT        22.9090   34.0940   11.8410 O      21837 WAT       0.0684
  21838 WAT        22.9090   34.0940   12.0910 O      21838 WAT       0.0949
  21839 WAT        22.9090   34.0940   12.3410 O      21839 WAT       0.0937
  21840 WAT        22.9090   34.0940   12.5910 O      21840 WAT       0.0672
  21841 WAT        22.9090   34.3440   11.8410 O      21841 WAT       0.0988
  21842 WAT        22.9090   34.3440   12.0910 O      21842 WAT       0.1564
  21843 WAT        22.9090   34.3440   12.3410 O      21843 WAT       0.1781
  21844 WAT        22.9090   34.3440   12.5910 O      21844 WAT       0.1491
  21845 WAT        22.9090   34.3440   12.8410 O      21845 WAT       0.0940
  21846 WAT        22.9090   34.3440   13.0910 O      21846 WAT       0.0455
  21847 WAT        22.9090   34.3440   15.5910 O      21847 WAT       0.0511
  21848 WAT        22.9090   34.3440   15.8410 O      21848 WAT       0.0787
  21849 WAT        22.9090   34.3440   16.0910 O      21849 WAT       0.0912
  21850 WAT        22.9090   34.3440   16.3410 O      21850 WAT       0.0763
  21851 WAT        22.9090   34.3440   25.8410 O      21851 WAT       0.0491
  21852 WAT        22.9090   34.3440   26.0910 O      21852 WAT       0.0515
  21853 WAT        22.9090   34.3440   26.3410 O      21853 WAT       0.0510
  21854 WAT        22.9090   34.3440   26.5910 O      21854 WAT       0.0484
  21855 WAT        22.9090   34.3440   26.8410 O      21855 WAT       0.0457
  21856 WAT        22.9090   34.5940   11.8410 O      21856 WAT       0.1047
  21857 WAT        22.9090   34.5940   12.0910 O      21857 WAT       0.1886
  21858 WAT        22.9090   34.5940   12.3410 O      21858 WAT       0.2463
  21859 WAT        22.9090   34.5940   12.5910 O      21859 WAT       0.2388
  21860 WAT        22.9090   34.5940   12.8410 O      21860 WAT       0.1765
  21861 WAT        22.9090   34.5940   13.0910 O      21861 WAT       0.1024
  21862 WAT        22.9090   34.5940   13.3410 O      21862 WAT       0.0477
  21863 WAT        22.9090   34.5940   15.3410 O      21863 WAT       0.0684
  21864 WAT        22.9090   34.5940   15.5910 O      21864 WAT       0.1157
  21865 WAT        22.9090   34.5940   15.8410 O      21865 WAT       0.1590
  21866 WAT        22.9090   34.5940   16.0910 O      21866 WAT       0.1689
  21867 WAT        22.9090   34.5940   16.3410 O      21867 WAT       0.1330
  21868 WAT        22.9090   34.5940   16.5910 O      21868 WAT       0.0761
  21869 WAT        22.9090   34.5940   24.8410 O      21869 WAT       0.0625
  21870 WAT        22.9090   34.5940   25.0910 O      21870 WAT       0.0790
  21871 WAT        22.9090   34.5940   25.3410 O      21871 WAT       0.0899
  21872 WAT        22.9090   34.5940   25.5910 O      21872 WAT       0.0943
  21873 WAT        22.9090   34.5940   25.8410 O      21873 WAT       0.0937
  21874 WAT        22.9090   34.5940   26.0910 O      21874 WAT       0.0890
  21875 WAT        22.9090   34.5940   26.3410 O      21875 WAT       0.0800
  21876 WAT        22.9090   34.5940   26.5910 O      21876 WAT       0.0681
  21877 WAT        22.9090   34.5940   26.8410 O      21877 WAT       0.0570
  21878 WAT        22.9090   34.5940   27.0910 O      21878 WAT       0.0500
  21879 WAT        22.9090   34.5940   27.3410 O      21879 WAT       0.0469
  21880 WAT        22.9090   34.5940   27.5910 O      21880 WAT       0.0459
  21881 WAT        22.9090   34.8440   11.8410 O      21881 WAT       0.0811
  21882 WAT        22.9090   34.8440   12.0910 O      21882 WAT       0.1656
  21883 WAT        22.9090   34.8440   12.3410 O      21883 WAT       0.2469
  21884 WAT        22.9090   34.8440   12.5910 O      21884 WAT       0.2752
  21885 WAT        22.9090   34.8440   12.8410 O      21885 WAT       0.2353
  21886 WAT        22.9090   34.8440   13.0910 O      21886 WAT       0.1584
  21887 WAT        22.9090   34.8440   13.3410 O      21887 WAT       0.0859
  21888 WAT        22.9090   34.8440   15.0910 O      21888 WAT       0.0640
  21889 WAT        22.9090   34.8440   15.3410 O      21889 WAT       0.1162
  21890 WAT        22.9090   34.8440   15.5910 O      21890 WAT       0.1770
  21891 WAT        22.9090   34.8440   15.8410 O      21891 WAT       0.2198
  21892 WAT        22.9090   34.8440   16.0910 O      21892 WAT       0.2144
  21893 WAT        22.9090   34.8440   16.3410 O      21893 WAT       0.1593
  21894 WAT        22.9090   34.8440   16.5910 O      21894 WAT       0.0894
  21895 WAT        22.9090   34.8440   24.3410 O      21895 WAT       0.0585
  21896 WAT        22.9090   34.8440   24.5910 O      21896 WAT       0.0879
  21897 WAT        22.9090   34.8440   24.8410 O      21897 WAT       0.1177
  21898 WAT        22.9090   34.8440   25.0910 O      21898 WAT       0.1398
  21899 WAT        22.9090   34.8440   25.3410 O      21899 WAT       0.1487
  21900 WAT        22.9090   34.8440   25.5910 O      21900 WAT       0.1441
  21901 WAT        22.9090   34.8440   25.8410 O      21901 WAT       0.1309
  21902 WAT        22.9090   34.8440   26.0910 O      21902 WAT       0.1135
  21903 WAT        22.9090   34.8440   26.3410 O      21903 WAT       0.0936
  21904 WAT        22.9090   34.8440   26.5910 O      21904 WAT       0.0731
  21905 WAT        22.9090   34.8440   26.8410 O      21905 WAT       0.0561
  21906 WAT        22.9090   34.8440   27.0910 O      21906 WAT       0.0456
  21907 WAT        22.9090   35.0940   11.8410 O      21907 WAT       0.0457
  21908 WAT        22.9090   35.0940   12.0910 O      21908 WAT       0.1057
  21909 WAT        22.9090   35.0940   12.3410 O      21909 WAT       0.1783
  21910 WAT        22.9090   35.0940   12.5910 O      21910 WAT       0.2257
  21911 WAT        22.9090   35.0940   12.8410 O      21911 WAT       0.2194
  21912 WAT        22.9090   35.0940   13.0910 O      21912 WAT       0.1673
  21913 WAT        22.9090   35.0940   13.3410 O      21913 WAT       0.1018
  21914 WAT        22.9090   35.0940   13.5910 O      21914 WAT       0.0505
  21915 WAT        22.9090   35.0940   15.0910 O      21915 WAT       0.0765
  21916 WAT        22.9090   35.0940   15.3410 O      21916 WAT       0.1292
  21917 WAT        22.9090   35.0940   15.5910 O      21917 WAT       0.1810
  21918 WAT        22.9090   35.0940   15.8410 O      21918 WAT       0.2060
  21919 WAT        22.9090   35.0940   16.0910 O      21919 WAT       0.1863
  21920 WAT        22.9090   35.0940   16.3410 O      21920 WAT       0.1317
  21921 WAT        22.9090   35.0940   16.5910 O      21921 WAT       0.0738
  21922 WAT        22.9090   35.0940   24.0910 O      21922 WAT       0.0510
  21923 WAT        22.9090   35.0940   24.3410 O      21923 WAT       0.0810
  21924 WAT        22.9090   35.0940   24.5910 O      21924 WAT       0.1170
  21925 WAT        22.9090   35.0940   24.8410 O      21925 WAT       0.1499
  21926 WAT        22.9090   35.0940   25.0910 O      21926 WAT       0.1698
  21927 WAT        22.9090   35.0940   25.3410 O      21927 WAT       0.1708
  21928 WAT        22.9090   35.0940   25.5910 O      21928 WAT       0.1551
  21929 WAT        22.9090   35.0940   25.8410 O      21929 WAT       0.1304
  21930 WAT        22.9090   35.0940   26.0910 O      21930 WAT       0.1042
  21931 WAT        22.9090   35.0940   26.3410 O      21931 WAT       0.0794
  21932 WAT        22.9090   35.0940   26.5910 O      21932 WAT       0.0576
  21933 WAT        22.9090   35.3440   12.0910 O      21933 WAT       0.0481
  21934 WAT        22.9090   35.3440   12.3410 O      21934 WAT       0.0911
  21935 WAT        22.9090   35.3440   12.5910 O      21935 WAT       0.1288
  21936 WAT        22.9090   35.3440   12.8410 O      21936 WAT       0.1393
  21937 WAT        22.9090   35.3440   13.0910 O      21937 WAT       0.1172
  21938 WAT        22.9090   35.3440   13.3410 O      21938 WAT       0.0778
  21939 WAT        22.9090   35.3440   15.0910 O      21939 WAT       0.0578
  21940 WAT        22.9090   35.3440   15.3410 O      21940 WAT       0.0923
  21941 WAT        22.9090   35.3440   15.5910 O      21941 WAT       0.1213
  21942 WAT        22.9090   35.3440   15.8410 O      21942 WAT       0.1289
  21943 WAT        22.9090   35.3440   16.0910 O      21943 WAT       0.1095
  21944 WAT        22.9090   35.3440   16.3410 O      21944 WAT       0.0746
  21945 WAT        22.9090   35.3440   24.0910 O      21945 WAT       0.0460
  21946 WAT        22.9090   35.3440   24.3410 O      21946 WAT       0.0713
  21947 WAT        22.9090   35.3440   24.5910 O      21947 WAT       0.1002
  21948 WAT        22.9090   35.3440   24.8410 O      21948 WAT       0.1244
  21949 WAT        22.9090   35.3440   25.0910 O      21949 WAT       0.1359
  21950 WAT        22.9090   35.3440   25.3410 O      21950 WAT       0.1310
  21951 WAT        22.9090   35.3440   25.5910 O      21951 WAT       0.1130
  21952 WAT        22.9090   35.3440   25.8410 O      21952 WAT       0.0892
  21953 WAT        22.9090   35.3440   26.0910 O      21953 WAT       0.0664
  21954 WAT        22.9090   35.3440   26.3410 O      21954 WAT       0.0472
  21955 WAT        23.1590    8.3440   21.5910 O      21955 WAT       0.0505
  21956 WAT        23.1590    8.3440   21.8410 O      21956 WAT       0.0563
  21957 WAT        23.1590    8.3440   22.0910 O      21957 WAT       0.0513
  21958 WAT        23.1590    8.3440   24.5910 O      21958 WAT       0.0467
  21959 WAT        23.1590    8.3440   24.8410 O      21959 WAT       0.0499
  21960 WAT        23.1590    8.3440   25.0910 O      21960 WAT       0.0540
  21961 WAT        23.1590    8.3440   25.3410 O      21961 WAT       0.0583
  21962 WAT        23.1590    8.3440   25.5910 O      21962 WAT       0.0594
  21963 WAT        23.1590    8.3440   25.8410 O      21963 WAT       0.0542
  21964 WAT        23.1590    8.5940   24.8410 O      21964 WAT       0.0509
  21965 WAT        23.1590    8.5940   25.0910 O      21965 WAT       0.0583
  21966 WAT        23.1590    8.5940   25.3410 O      21966 WAT       0.0644
  21967 WAT        23.1590    8.5940   25.5910 O      21967 WAT       0.0643
  21968 WAT        23.1590    8.5940   25.8410 O      21968 WAT       0.0558
  21969 WAT        23.1590    8.8440   25.0910 O      21969 WAT       0.0507
  21970 WAT        23.1590    8.8440   25.3410 O      21970 WAT       0.0571
  21971 WAT        23.1590    8.8440   25.5910 O      21971 WAT       0.0560
  21972 WAT        23.1590    8.8440   25.8410 O      21972 WAT       0.0465
  21973 WAT        23.1590    9.3440   17.5910 O      21973 WAT       0.0478
  21974 WAT        23.1590    9.3440   17.8410 O      21974 WAT       0.0463
  21975 WAT        23.1590    9.3440   27.8410 O      21975 WAT       0.0559
  21976 WAT        23.1590    9.3440   28.0910 O      21976 WAT       0.0635
  21977 WAT        23.1590    9.3440   28.3410 O      21977 WAT       0.0503
  21978 WAT        23.1590    9.5940   17.5910 O      21978 WAT       0.0502
  21979 WAT        23.1590    9.5940   17.8410 O      21979 WAT       0.0535
  21980 WAT        23.1590    9.5940   18.0910 O      21980 WAT       0.0503
  21981 WAT        23.1590    9.5940   27.5910 O      21981 WAT       0.0568
  21982 WAT        23.1590    9.5940   27.8410 O      21982 WAT       0.0867
  21983 WAT        23.1590    9.5940   28.0910 O      21983 WAT       0.0902
  21984 WAT        23.1590    9.5940   28.3410 O      21984 WAT       0.0644
  21985 WAT        23.1590    9.8440   17.5910 O      21985 WAT       0.0484
  21986 WAT        23.1590    9.8440   17.8410 O      21986 WAT       0.0555
  21987 WAT        23.1590    9.8440   18.0910 O      21987 WAT       0.0566
  21988 WAT        23.1590    9.8440   18.3410 O      21988 WAT       0.0523
  21989 WAT        23.1590    9.8440   27.5910 O      21989 WAT       0.0813
  21990 WAT        23.1590    9.8440   27.8410 O      21990 WAT       0.1167
  21991 WAT        23.1590    9.8440   28.0910 O      21991 WAT       0.1129
  21992 WAT        23.1590    9.8440   28.3410 O      21992 WAT       0.0738
  21993 WAT        23.1590   10.0940   17.8410 O      21993 WAT       0.0491
  21994 WAT        23.1590   10.0940   18.0910 O      21994 WAT       0.0536
  21995 WAT        23.1590   10.0940   18.3410 O      21995 WAT       0.0544
  21996 WAT        23.1590   10.0940   18.5910 O      21996 WAT       0.0520
  21997 WAT        23.1590   10.0940   18.8410 O      21997 WAT       0.0475
  21998 WAT        23.1590   10.0940   27.3410 O      21998 WAT       0.0476
  21999 WAT        23.1590   10.0940   27.5910 O      21999 WAT       0.0966
  22000 WAT        23.1590   10.0940   27.8410 O      22000 WAT       0.1319
  22001 WAT        23.1590   10.0940   28.0910 O      22001 WAT       0.1203
  22002 WAT        23.1590   10.0940   28.3410 O      22002 WAT       0.0729
  22003 WAT        23.1590   10.3440   18.3410 O      22003 WAT       0.0463
  22004 WAT        23.1590   10.3440   18.5910 O      22004 WAT       0.0496
  22005 WAT        23.1590   10.3440   18.8410 O      22005 WAT       0.0511
  22006 WAT        23.1590   10.3440   19.0910 O      22006 WAT       0.0514
  22007 WAT        23.1590   10.3440   19.3410 O      22007 WAT       0.0512
  22008 WAT        23.1590   10.3440   19.5910 O      22008 WAT       0.0493
  22009 WAT        23.1590   10.3440   27.3410 O      22009 WAT       0.0482
  22010 WAT        23.1590   10.3440   27.5910 O      22010 WAT       0.0940
  22011 WAT        23.1590   10.3440   27.8410 O      22011 WAT       0.1232
  22012 WAT        23.1590   10.3440   28.0910 O      22012 WAT       0.1068
  22013 WAT        23.1590   10.3440   28.3410 O      22013 WAT       0.0607
  22014 WAT        23.1590   10.5940   19.0910 O      22014 WAT       0.0501
  22015 WAT        23.1590   10.5940   19.3410 O      22015 WAT       0.0556
  22016 WAT        23.1590   10.5940   19.5910 O      22016 WAT       0.0584
  22017 WAT        23.1590   10.5940   19.8410 O      22017 WAT       0.0544
  22018 WAT        23.1590   10.5940   27.5910 O      22018 WAT       0.0736
  22019 WAT        23.1590   10.5940   27.8410 O      22019 WAT       0.0933
  22020 WAT        23.1590   10.5940   28.0910 O      22020 WAT       0.0777
  22021 WAT        23.1590   10.8440   19.3410 O      22021 WAT       0.0474
  22022 WAT        23.1590   10.8440   19.5910 O      22022 WAT       0.0542
  22023 WAT        23.1590   10.8440   19.8410 O      22023 WAT       0.0533
  22024 WAT        23.1590   10.8440   27.5910 O      22024 WAT       0.0458
  22025 WAT        23.1590   10.8440   27.8410 O      22025 WAT       0.0559
  22026 WAT        23.1590   11.0940   15.5910 O      22026 WAT       0.0512
  22027 WAT        23.1590   11.0940   15.8410 O      22027 WAT       0.0540
  22028 WAT        23.1590   11.0940   16.0910 O      22028 WAT       0.0493
  22029 WAT        23.1590   11.3440   15.3410 O      22029 WAT       0.0488
  22030 WAT        23.1590   11.3440   15.5910 O      22030 WAT       0.0586
  22031 WAT        23.1590   11.3440   15.8410 O      22031 WAT       0.0610
  22032 WAT        23.1590   11.3440   16.0910 O      22032 WAT       0.0541
  22033 WAT        23.1590   11.5940   15.3410 O      22033 WAT       0.0524
  22034 WAT        23.1590   11.5940   15.5910 O      22034 WAT       0.0618
  22035 WAT        23.1590   11.5940   15.8410 O      22035 WAT       0.0629
  22036 WAT        23.1590   11.5940   16.0910 O      22036 WAT       0.0540
  22037 WAT        23.1590   11.8440   15.3410 O      22037 WAT       0.0517
  22038 WAT        23.1590   11.8440   15.5910 O      22038 WAT       0.0587
  22039 WAT        23.1590   11.8440   15.8410 O      22039 WAT       0.0577
  22040 WAT        23.1590   11.8440   16.0910 O      22040 WAT       0.0483
  22041 WAT        23.1590   12.0940   12.8410 O      22041 WAT       0.0453
  22042 WAT        23.1590   12.0940   13.0910 O      22042 WAT       0.0482
  22043 WAT        23.1590   12.0940   13.3410 O      22043 WAT       0.0480
  22044 WAT        23.1590   12.0940   13.5910 O      22044 WAT       0.0452
  22045 WAT        23.1590   12.0940   15.5910 O      22045 WAT       0.0478
  22046 WAT        23.1590   12.0940   15.8410 O      22046 WAT       0.0452
  22047 WAT        23.1590   12.3440   12.0910 O      22047 WAT       0.0506
  22048 WAT        23.1590   12.3440   12.3410 O      22048 WAT       0.0605
  22049 WAT        23.1590   12.3440   12.5910 O      22049 WAT       0.0711
  22050 WAT        23.1590   12.3440   12.8410 O      22050 WAT       0.0801
  22051 WAT        23.1590   12.3440   13.0910 O      22051 WAT       0.0846
  22052 WAT        23.1590   12.3440   13.3410 O      22052 WAT       0.0827
  22053 WAT        23.1590   12.3440   13.5910 O      22053 WAT       0.0745
  22054 WAT        23.1590   12.3440   13.8410 O      22054 WAT       0.0630
  22055 WAT        23.1590   12.3440   14.0910 O      22055 WAT       0.0512
  22056 WAT        23.1590   12.5940   11.0910 O      22056 WAT       0.0472
  22057 WAT        23.1590   12.5940   11.3410 O      22057 WAT       0.0500
  22058 WAT        23.1590   12.5940   11.5910 O      22058 WAT       0.0538
  22059 WAT        23.1590   12.5940   11.8410 O      22059 WAT       0.0610
  22060 WAT        23.1590   12.5940   12.0910 O      22060 WAT       0.0725
  22061 WAT        23.1590   12.5940   12.3410 O      22061 WAT       0.0872
  22062 WAT        23.1590   12.5940   12.5910 O      22062 WAT       0.1024
  22063 WAT        23.1590   12.5940   12.8410 O      22063 WAT       0.1141
  22064 WAT        23.1590   12.5940   13.0910 O      22064 WAT       0.1177
  22065 WAT        23.1590   12.5940   13.3410 O      22065 WAT       0.1102
  22066 WAT        23.1590   12.5940   13.5910 O      22066 WAT       0.0929
  22067 WAT        23.1590   12.5940   13.8410 O      22067 WAT       0.0714
  22068 WAT        23.1590   12.5940   14.0910 O      22068 WAT       0.0518
  22069 WAT        23.1590   12.8440   10.5910 O      22069 WAT       0.0479
  22070 WAT        23.1590   12.8440   10.8410 O      22070 WAT       0.0547
  22071 WAT        23.1590   12.8440   11.0910 O      22071 WAT       0.0573
  22072 WAT        23.1590   12.8440   11.3410 O      22072 WAT       0.0571
  22073 WAT        23.1590   12.8440   11.5910 O      22073 WAT       0.0582
  22074 WAT        23.1590   12.8440   11.8410 O      22074 WAT       0.0641
  22075 WAT        23.1590   12.8440   12.0910 O      22075 WAT       0.0754
  22076 WAT        23.1590   12.8440   12.3410 O      22076 WAT       0.0908
  22077 WAT        23.1590   12.8440   12.5910 O      22077 WAT       0.1065
  22078 WAT        23.1590   12.8440   12.8410 O      22078 WAT       0.1174
  22079 WAT        23.1590   12.8440   13.0910 O      22079 WAT       0.1177
  22080 WAT        23.1590   12.8440   13.3410 O      22080 WAT       0.1047
  22081 WAT        23.1590   12.8440   13.5910 O      22081 WAT       0.0819
  22082 WAT        23.1590   12.8440   13.8410 O      22082 WAT       0.0569
  22083 WAT        23.1590   13.0940   10.5910 O      22083 WAT       0.0516
  22084 WAT        23.1590   13.0940   10.8410 O      22084 WAT       0.0537
  22085 WAT        23.1590   13.0940   11.0910 O      22085 WAT       0.0512
  22086 WAT        23.1590   13.0940   11.3410 O      22086 WAT       0.0469
  22087 WAT        23.1590   13.0940   11.8410 O      22087 WAT       0.0469
  22088 WAT        23.1590   13.0940   12.0910 O      22088 WAT       0.0544
  22089 WAT        23.1590   13.0940   12.3410 O      22089 WAT       0.0656
  22090 WAT        23.1590   13.0940   12.5910 O      22090 WAT       0.0773
  22091 WAT        23.1590   13.0940   12.8410 O      22091 WAT       0.0844
  22092 WAT        23.1590   13.0940   13.0910 O      22092 WAT       0.0820
  22093 WAT        23.1590   13.0940   13.3410 O      22093 WAT       0.0690
  22094 WAT        23.1590   13.0940   13.5910 O      22094 WAT       0.0498
  22095 WAT        23.1590   14.3440   28.0910 O      22095 WAT       0.0495
  22096 WAT        23.1590   14.5940   28.0910 O      22096 WAT       0.0495
  22097 WAT        23.1590   15.0940    9.0910 O      22097 WAT       0.0476
  22098 WAT        23.1590   15.0940    9.3410 O      22098 WAT       0.0479
  22099 WAT        23.1590   15.0940   19.8410 O      22099 WAT       0.0514
  22100 WAT        23.1590   15.0940   20.0910 O      22100 WAT       0.0476
  22101 WAT        23.1590   15.3440    8.8410 O      22101 WAT       0.0497
  22102 WAT        23.1590   15.3440    9.0910 O      22102 WAT       0.0568
  22103 WAT        23.1590   15.3440    9.3410 O      22103 WAT       0.0549
  22104 WAT        23.1590   15.3440   19.5910 O      22104 WAT       0.0848
  22105 WAT        23.1590   15.3440   19.8410 O      22105 WAT       0.1240
  22106 WAT        23.1590   15.3440   20.0910 O      22106 WAT       0.1170
  22107 WAT        23.1590   15.3440   20.3410 O      22107 WAT       0.0699
  22108 WAT        23.1590   15.5940    8.3410 O      22108 WAT       0.0454
  22109 WAT        23.1590   15.5940    8.5910 O      22109 WAT       0.0506
  22110 WAT        23.1590   15.5940    8.8410 O      22110 WAT       0.0574
  22111 WAT        23.1590   15.5940    9.0910 O      22111 WAT       0.0623
  22112 WAT        23.1590   15.5940    9.3410 O      22112 WAT       0.0577
  22113 WAT        23.1590   15.5940   19.3410 O      22113 WAT       0.0628
  22114 WAT        23.1590   15.5940   19.5910 O      22114 WAT       0.1434
  22115 WAT        23.1590   15.5940   19.8410 O      22115 WAT       0.2148
  22116 WAT        23.1590   15.5940   20.0910 O      22116 WAT       0.2079
  22117 WAT        23.1590   15.5940   20.3410 O      22117 WAT       0.1282
  22118 WAT        23.1590   15.5940   20.5910 O      22118 WAT       0.0488
  22119 WAT        23.1590   15.8440    8.0910 O      22119 WAT       0.0479
  22120 WAT        23.1590   15.8440    8.3410 O      22120 WAT       0.0526
  22121 WAT        23.1590   15.8440    8.5910 O      22121 WAT       0.0562
  22122 WAT        23.1590   15.8440    8.8410 O      22122 WAT       0.0599
  22123 WAT        23.1590   15.8440    9.0910 O      22123 WAT       0.0609
  22124 WAT        23.1590   15.8440    9.3410 O      22124 WAT       0.0539
  22125 WAT        23.1590   15.8440   19.3410 O      22125 WAT       0.0737
  22126 WAT        23.1590   15.8440   19.5910 O      22126 WAT       0.1739
  22127 WAT        23.1590   15.8440   19.8410 O      22127 WAT       0.2683
  22128 WAT        23.1590   15.8440   20.0910 O      22128 WAT       0.2678
  22129 WAT        23.1590   15.8440   20.3410 O      22129 WAT       0.1709
  22130 WAT        23.1590   15.8440   20.5910 O      22130 WAT       0.0683
  22131 WAT        23.1590   16.0940    8.0910 O      22131 WAT       0.0492
  22132 WAT        23.1590   16.0940    8.3410 O      22132 WAT       0.0529
  22133 WAT        23.1590   16.0940    8.5910 O      22133 WAT       0.0540
  22134 WAT        23.1590   16.0940    8.8410 O      22134 WAT       0.0537
  22135 WAT        23.1590   16.0940    9.0910 O      22135 WAT       0.0511
  22136 WAT        23.1590   16.0940   19.3410 O      22136 WAT       0.0626
  22137 WAT        23.1590   16.0940   19.5910 O      22137 WAT       0.1525
  22138 WAT        23.1590   16.0940   19.8410 O      22138 WAT       0.2428
  22139 WAT        23.1590   16.0940   20.0910 O      22139 WAT       0.2506
  22140 WAT        23.1590   16.0940   20.3410 O      22140 WAT       0.1658
  22141 WAT        23.1590   16.0940   20.5910 O      22141 WAT       0.0689
  22142 WAT        23.1590   16.3440   19.5910 O      22142 WAT       0.0972
  22143 WAT        23.1590   16.3440   19.8410 O      22143 WAT       0.1593
  22144 WAT        23.1590   16.3440   20.0910 O      22144 WAT       0.1698
  22145 WAT        23.1590   16.3440   20.3410 O      22145 WAT       0.1162
  22146 WAT        23.1590   16.3440   20.5910 O      22146 WAT       0.0497
  22147 WAT        23.1590   16.5940   19.5910 O      22147 WAT       0.0450
  22148 WAT        23.1590   16.5940   19.8410 O      22148 WAT       0.0751
  22149 WAT        23.1590   16.5940   20.0910 O      22149 WAT       0.0821
  22150 WAT        23.1590   16.5940   20.3410 O      22150 WAT       0.0576
  22151 WAT        23.1590   17.0940    3.0910 O      22151 WAT       0.0456
  22152 WAT        23.1590   17.0940    3.3410 O      22152 WAT       0.0488
  22153 WAT        23.1590   17.0940    3.5910 O      22153 WAT       0.0489
  22154 WAT        23.1590   17.0940    3.8410 O      22154 WAT       0.0453
  22155 WAT        23.1590   17.3440    2.8410 O      22155 WAT       0.0463
  22156 WAT        23.1590   17.3440    3.0910 O      22156 WAT       0.0512
  22157 WAT        23.1590   17.3440    3.3410 O      22157 WAT       0.0528
  22158 WAT        23.1590   17.3440    3.5910 O      22158 WAT       0.0508
  22159 WAT        23.1590   17.3440    3.8410 O      22159 WAT       0.0454
  22160 WAT        23.1590   17.3440    5.5910 O      22160 WAT       0.0501
  22161 WAT        23.1590   17.3440    5.8410 O      22161 WAT       0.0547
  22162 WAT        23.1590   17.3440    6.0910 O      22162 WAT       0.0545
  22163 WAT        23.1590   17.3440    6.3410 O      22163 WAT       0.0486
  22164 WAT        23.1590   17.5940    2.8410 O      22164 WAT       0.0471
  22165 WAT        23.1590   17.5940    3.0910 O      22165 WAT       0.0496
  22166 WAT        23.1590   17.5940    3.3410 O      22166 WAT       0.0484
  22167 WAT        23.1590   17.5940    5.3410 O      22167 WAT       0.0501
  22168 WAT        23.1590   17.5940    5.5910 O      22168 WAT       0.0620
  22169 WAT        23.1590   17.5940    5.8410 O      22169 WAT       0.0702
  22170 WAT        23.1590   17.5940    6.0910 O      22170 WAT       0.0709
  22171 WAT        23.1590   17.5940    6.3410 O      22171 WAT       0.0623
  22172 WAT        23.1590   17.5940    6.5910 O      22172 WAT       0.0464
  22173 WAT        23.1590   17.8440    5.3410 O      22173 WAT       0.0470
  22174 WAT        23.1590   17.8440    5.5910 O      22174 WAT       0.0622
  22175 WAT        23.1590   17.8440    5.8410 O      22175 WAT       0.0737
  22176 WAT        23.1590   17.8440    6.0910 O      22176 WAT       0.0763
  22177 WAT        23.1590   17.8440    6.3410 O      22177 WAT       0.0669
  22178 WAT        23.1590   17.8440    6.5910 O      22178 WAT       0.0481
  22179 WAT        23.1590   18.0940    5.5910 O      22179 WAT       0.0475
  22180 WAT        23.1590   18.0940    5.8410 O      22180 WAT       0.0595
  22181 WAT        23.1590   18.0940    6.0910 O      22181 WAT       0.0636
  22182 WAT        23.1590   18.0940    6.3410 O      22182 WAT       0.0561
  22183 WAT        23.1590   22.3440   29.3410 O      22183 WAT       0.0486
  22184 WAT        23.1590   22.5940   29.0910 O      22184 WAT       0.0883
  22185 WAT        23.1590   22.5940   29.3410 O      22185 WAT       0.1208
  22186 WAT        23.1590   22.5940   29.5910 O      22186 WAT       0.1034
  22187 WAT        23.1590   22.8440   28.8410 O      22187 WAT       0.0727
  22188 WAT        23.1590   22.8440   29.0910 O      22188 WAT       0.1500
  22189 WAT        23.1590   22.8440   29.3410 O      22189 WAT       0.1981
  22190 WAT        23.1590   22.8440   29.5910 O      22190 WAT       0.1649
  22191 WAT        23.1590   23.0940   28.8410 O      22191 WAT       0.0847
  22192 WAT        23.1590   23.0940   29.0910 O      22192 WAT       0.1683
  22193 WAT        23.1590   23.0940   29.3410 O      22193 WAT       0.2150
  22194 WAT        23.1590   23.0940   29.5910 O      22194 WAT       0.1741
  22195 WAT        23.1590   23.3440   28.8410 O      22195 WAT       0.0648
  22196 WAT        23.1590   23.3440   29.0910 O      22196 WAT       0.1246
  22197 WAT        23.1590   23.3440   29.3410 O      22197 WAT       0.1544
  22198 WAT        23.1590   23.3440   29.5910 O      22198 WAT       0.1217
  22199 WAT        23.1590   23.5940   29.0910 O      22199 WAT       0.0607
  22200 WAT        23.1590   23.5940   29.3410 O      22200 WAT       0.0732
  22201 WAT        23.1590   23.5940   29.5910 O      22201 WAT       0.0563
  22202 WAT        23.1590   24.5940   21.8410 O      22202 WAT       0.0478
  22203 WAT        23.1590   24.5940   22.0910 O      22203 WAT       0.0488
  22204 WAT        23.1590   25.5940   18.0910 O      22204 WAT       0.0556
  22205 WAT        23.1590   25.5940   18.3410 O      22205 WAT       0.0785
  22206 WAT        23.1590   25.5940   18.5910 O      22206 WAT       0.0907
  22207 WAT        23.1590   25.5940   18.8410 O      22207 WAT       0.0830
  22208 WAT        23.1590   25.5940   19.0910 O      22208 WAT       0.0593
  22209 WAT        23.1590   25.8440   17.5910 O      22209 WAT       0.0649
  22210 WAT        23.1590   25.8440   17.8410 O      22210 WAT       0.1070
  22211 WAT        23.1590   25.8440   18.0910 O      22211 WAT       0.1486
  22212 WAT        23.1590   25.8440   18.3410 O      22212 WAT       0.1758
  22213 WAT        23.1590   25.8440   18.5910 O      22213 WAT       0.1726
  22214 WAT        23.1590   25.8440   18.8410 O      22214 WAT       0.1355
  22215 WAT        23.1590   25.8440   19.0910 O      22215 WAT       0.0831
  22216 WAT        23.1590   25.8440   20.8410 O      22216 WAT       0.0484
  22217 WAT        23.1590   25.8440   21.0910 O      22217 WAT       0.0516
  22218 WAT        23.1590   25.8440   21.3410 O      22218 WAT       0.0491
  22219 WAT        23.1590   26.0940   17.3410 O      22219 WAT       0.0850
  22220 WAT        23.1590   26.0940   17.5910 O      22220 WAT       0.1552
  22221 WAT        23.1590   26.0940   17.8410 O      22221 WAT       0.2240
  22222 WAT        23.1590   26.0940   18.0910 O      22222 WAT       0.2669
  22223 WAT        23.1590   26.0940   18.3410 O      22223 WAT       0.2693
  22224 WAT        23.1590   26.0940   18.5910 O      22224 WAT       0.2276
  22225 WAT        23.1590   26.0940   18.8410 O      22225 WAT       0.1558
  22226 WAT        23.1590   26.0940   19.0910 O      22226 WAT       0.0840
  22227 WAT        23.1590   26.0940   20.5910 O      22227 WAT       0.0597
  22228 WAT        23.1590   26.0940   20.8410 O      22228 WAT       0.0691
  22229 WAT        23.1590   26.0940   21.0910 O      22229 WAT       0.0667
  22230 WAT        23.1590   26.0940   21.3410 O      22230 WAT       0.0561
  22231 WAT        23.1590   26.0940   28.8410 O      22231 WAT       0.0590
  22232 WAT        23.1590   26.0940   29.0910 O      22232 WAT       0.0650
  22233 WAT        23.1590   26.0940   29.3410 O      22233 WAT       0.0499
  22234 WAT        23.1590   26.3440   17.0910 O      22234 WAT       0.0639
  22235 WAT        23.1590   26.3440   17.3410 O      22235 WAT       0.1428
  22236 WAT        23.1590   26.3440   17.5910 O      22236 WAT       0.2396
  22237 WAT        23.1590   26.3440   17.8410 O      22237 WAT       0.3110
  22238 WAT        23.1590   26.3440   18.0910 O      22238 WAT       0.3248
  22239 WAT        23.1590   26.3440   18.3410 O      22239 WAT       0.2831
  22240 WAT        23.1590   26.3440   18.5910 O      22240 WAT       0.2076
  22241 WAT        23.1590   26.3440   18.8410 O      22241 WAT       0.1253
  22242 WAT        23.1590   26.3440   19.0910 O      22242 WAT       0.0608
  22243 WAT        23.1590   26.3440   20.3410 O      22243 WAT       0.0530
  22244 WAT        23.1590   26.3440   20.5910 O      22244 WAT       0.0733
  22245 WAT        23.1590   26.3440   20.8410 O      22245 WAT       0.0796
  22246 WAT        23.1590   26.3440   21.0910 O      22246 WAT       0.0704
  22247 WAT        23.1590   26.3440   21.3410 O      22247 WAT       0.0528
  22248 WAT        23.1590   26.3440   28.5910 O      22248 WAT       0.0950
  22249 WAT        23.1590   26.3440   28.8410 O      22249 WAT       0.1449
  22250 WAT        23.1590   26.3440   29.0910 O      22250 WAT       0.1534
  22251 WAT        23.1590   26.3440   29.3410 O      22251 WAT       0.1136
  22252 WAT        23.1590   26.3440   29.5910 O      22252 WAT       0.0585
  22253 WAT        23.1590   26.5940   17.0910 O      22253 WAT       0.0728
  22254 WAT        23.1590   26.5940   17.3410 O      22254 WAT       0.1536
  22255 WAT        23.1590   26.5940   17.5910 O      22255 WAT       0.2409
  22256 WAT        23.1590   26.5940   17.8410 O      22256 WAT       0.2869
  22257 WAT        23.1590   26.5940   18.0910 O      22257 WAT       0.2684
  22258 WAT        23.1590   26.5940   18.3410 O      22258 WAT       0.2056
  22259 WAT        23.1590   26.5940   18.5910 O      22259 WAT       0.1322
  22260 WAT        23.1590   26.5940   18.8410 O      22260 WAT       0.0711
  22261 WAT        23.1590   26.5940   20.3410 O      22261 WAT       0.0508
  22262 WAT        23.1590   26.5940   20.5910 O      22262 WAT       0.0670
  22263 WAT        23.1590   26.5940   20.8410 O      22263 WAT       0.0688
  22264 WAT        23.1590   26.5940   21.0910 O      22264 WAT       0.0563
  22265 WAT        23.1590   26.5940   28.3410 O      22265 WAT       0.0818
  22266 WAT        23.1590   26.5940   28.5910 O      22266 WAT       0.1758
  22267 WAT        23.1590   26.5940   28.8410 O      22267 WAT       0.2603
  22268 WAT        23.1590   26.5940   29.0910 O      22268 WAT       0.2675
  22269 WAT        23.1590   26.5940   29.3410 O      22269 WAT       0.1925
  22270 WAT        23.1590   26.5940   29.5910 O      22270 WAT       0.0968
  22271 WAT        23.1590   26.8440   17.0910 O      22271 WAT       0.0533
  22272 WAT        23.1590   26.8440   17.3410 O      22272 WAT       0.1072
  22273 WAT        23.1590   26.8440   17.5910 O      22273 WAT       0.1589
  22274 WAT        23.1590   26.8440   17.8410 O      22274 WAT       0.1768
  22275 WAT        23.1590   26.8440   18.0910 O      22275 WAT       0.1517
  22276 WAT        23.1590   26.8440   18.3410 O      22276 WAT       0.1045
  22277 WAT        23.1590   26.8440   18.5910 O      22277 WAT       0.0599
  22278 WAT        23.1590   26.8440   28.3410 O      22278 WAT       0.1128
  22279 WAT        23.1590   26.8440   28.5910 O      22279 WAT       0.2382
  22280 WAT        23.1590   26.8440   28.8410 O      22280 WAT       0.3466
  22281 WAT        23.1590   26.8440   29.0910 O      22281 WAT       0.3502
  22282 WAT        23.1590   26.8440   29.3410 O      22282 WAT       0.2478
  22283 WAT        23.1590   26.8440   29.5910 O      22283 WAT       0.1227
  22284 WAT        23.1590   27.0940   17.3410 O      22284 WAT       0.0493
  22285 WAT        23.1590   27.0940   17.5910 O      22285 WAT       0.0700
  22286 WAT        23.1590   27.0940   17.8410 O      22286 WAT       0.0740
  22287 WAT        23.1590   27.0940   18.0910 O      22287 WAT       0.0598
  22288 WAT        23.1590   27.0940   28.3410 O      22288 WAT       0.1128
  22289 WAT        23.1590   27.0940   28.5910 O      22289 WAT       0.2376
  22290 WAT        23.1590   27.0940   28.8410 O      22290 WAT       0.3451
  22291 WAT        23.1590   27.0940   29.0910 O      22291 WAT       0.3485
  22292 WAT        23.1590   27.0940   29.3410 O      22292 WAT       0.2466
  22293 WAT        23.1590   27.0940   29.5910 O      22293 WAT       0.1220
  22294 WAT        23.1590   27.3440   28.3410 O      22294 WAT       0.0819
  22295 WAT        23.1590   27.3440   28.5910 O      22295 WAT       0.1748
  22296 WAT        23.1590   27.3440   28.8410 O      22296 WAT       0.2581
  22297 WAT        23.1590   27.3440   29.0910 O      22297 WAT       0.2656
  22298 WAT        23.1590   27.3440   29.3410 O      22298 WAT       0.1917
  22299 WAT        23.1590   27.3440   29.5910 O      22299 WAT       0.0963
  22300 WAT        23.1590   27.5940   26.5910 O      22300 WAT       0.0657
  22301 WAT        23.1590   27.5940   26.8410 O      22301 WAT       0.0608
  22302 WAT        23.1590   27.5940   28.5910 O      22302 WAT       0.0946
  22303 WAT        23.1590   27.5940   28.8410 O      22303 WAT       0.1448
  22304 WAT        23.1590   27.5940   29.0910 O      22304 WAT       0.1548
  22305 WAT        23.1590   27.5940   29.3410 O      22305 WAT       0.1159
  22306 WAT        23.1590   27.5940   29.5910 O      22306 WAT       0.0600
  22307 WAT        23.1590   27.8440   26.0910 O      22307 WAT       0.0451
  22308 WAT        23.1590   27.8440   26.3410 O      22308 WAT       0.1077
  22309 WAT        23.1590   27.8440   26.5910 O      22309 WAT       0.1582
  22310 WAT        23.1590   27.8440   26.8410 O      22310 WAT       0.1458
  22311 WAT        23.1590   27.8440   27.0910 O      22311 WAT       0.0850
  22312 WAT        23.1590   27.8440   28.8410 O      22312 WAT       0.0606
  22313 WAT        23.1590   27.8440   29.0910 O      22313 WAT       0.0683
  22314 WAT        23.1590   27.8440   29.3410 O      22314 WAT       0.0538
  22315 WAT        23.1590   28.0940   26.0910 O      22315 WAT       0.0848
  22316 WAT        23.1590   28.0940   26.3410 O      22316 WAT       0.2010
  22317 WAT        23.1590   28.0940   26.5910 O      22317 WAT       0.2950
  22318 WAT        23.1590   28.0940   26.8410 O      22318 WAT       0.2712
  22319 WAT        23.1590   28.0940   27.0910 O      22319 WAT       0.1573
  22320 WAT        23.1590   28.0940   27.3410 O      22320 WAT       0.0575
  22321 WAT        23.1590   28.3440   26.0910 O      22321 WAT       0.1222
  22322 WAT        23.1590   28.3440   26.3410 O      22322 WAT       0.2896
  22323 WAT        23.1590   28.3440   26.5910 O      22323 WAT       0.4250
  22324 WAT        23.1590   28.3440   26.8410 O      22324 WAT       0.3897
  22325 WAT        23.1590   28.3440   27.0910 O      22325 WAT       0.2246
  22326 WAT        23.1590   28.3440   27.3410 O      22326 WAT       0.0816
  22327 WAT        23.1590   28.5940   16.3410 O      22327 WAT       0.0496
  22328 WAT        23.1590   28.5940   16.5910 O      22328 WAT       0.0455
  22329 WAT        23.1590   28.5940   26.0910 O      22329 WAT       0.1340
  22330 WAT        23.1590   28.5940   26.3410 O      22330 WAT       0.3185
  22331 WAT        23.1590   28.5940   26.5910 O      22331 WAT       0.4679
  22332 WAT        23.1590   28.5940   26.8410 O      22332 WAT       0.4281
  22333 WAT        23.1590   28.5940   27.0910 O      22333 WAT       0.2452
  22334 WAT        23.1590   28.5940   27.3410 O      22334 WAT       0.0882
  22335 WAT        23.1590   28.8440   16.0910 O      22335 WAT       0.0472
  22336 WAT        23.1590   28.8440   16.3410 O      22336 WAT       0.0630
  22337 WAT        23.1590   28.8440   16.5910 O      22337 WAT       0.0613
  22338 WAT        23.1590   28.8440   26.0910 O      22338 WAT       0.1100
  22339 WAT        23.1590   28.8440   26.3410 O      22339 WAT       0.2634
  22340 WAT        23.1590   28.8440   26.5910 O      22340 WAT       0.3878
  22341 WAT        23.1590   28.8440   26.8410 O      22341 WAT       0.3542
  22342 WAT        23.1590   28.8440   27.0910 O      22342 WAT       0.2017
  22343 WAT        23.1590   28.8440   27.3410 O      22343 WAT       0.0714
  22344 WAT        23.1590   29.0940   16.3410 O      22344 WAT       0.0534
  22345 WAT        23.1590   29.0940   16.5910 O      22345 WAT       0.0543
  22346 WAT        23.1590   29.0940   26.0910 O      22346 WAT       0.0663
  22347 WAT        23.1590   29.0940   26.3410 O      22347 WAT       0.1610
  22348 WAT        23.1590   29.0940   26.5910 O      22348 WAT       0.2380
  22349 WAT        23.1590   29.0940   26.8410 O      22349 WAT       0.2171
  22350 WAT        23.1590   29.0940   27.0910 O      22350 WAT       0.1226
  22351 WAT        23.1590   29.3440   26.3410 O      22351 WAT       0.0713
  22352 WAT        23.1590   29.3440   26.5910 O      22352 WAT       0.1060
  22353 WAT        23.1590   29.3440   26.8410 O      22353 WAT       0.0965
  22354 WAT        23.1590   29.3440   27.0910 O      22354 WAT       0.0537
  22355 WAT        23.1590   33.8440   11.8410 O      22355 WAT       0.0623
  22356 WAT        23.1590   33.8440   12.0910 O      22356 WAT       0.0703
  22357 WAT        23.1590   33.8440   12.3410 O      22357 WAT       0.0552
  22358 WAT        23.1590   33.8440   27.0910 O      22358 WAT       0.0460
  22359 WAT        23.1590   33.8440   27.3410 O      22359 WAT       0.0521
  22360 WAT        23.1590   33.8440   27.5910 O      22360 WAT       0.0509
  22361 WAT        23.1590   34.0940   11.5910 O      22361 WAT       0.0584
  22362 WAT        23.1590   34.0940   11.8410 O      22362 WAT       0.1088
  22363 WAT        23.1590   34.0940   12.0910 O      22363 WAT       0.1401
  22364 WAT        23.1590   34.0940   12.3410 O      22364 WAT       0.1269
  22365 WAT        23.1590   34.0940   12.5910 O      22365 WAT       0.0820
  22366 WAT        23.1590   34.0940   26.8410 O      22366 WAT       0.0475
  22367 WAT        23.1590   34.0940   27.0910 O      22367 WAT       0.0556
  22368 WAT        23.1590   34.0940   27.3410 O      22368 WAT       0.0611
  22369 WAT        23.1590   34.0940   27.5910 O      22369 WAT       0.0606
  22370 WAT        23.1590   34.0940   27.8410 O      22370 WAT       0.0533
  22371 WAT        23.1590   34.3440   11.5910 O      22371 WAT       0.0675
  22372 WAT        23.1590   34.3440   11.8410 O      22372 WAT       0.1418
  22373 WAT        23.1590   34.3440   12.0910 O      22373 WAT       0.2071
  22374 WAT        23.1590   34.3440   12.3410 O      22374 WAT       0.2141
  22375 WAT        23.1590   34.3440   12.5910 O      22375 WAT       0.1596
  22376 WAT        23.1590   34.3440   12.8410 O      22376 WAT       0.0872
  22377 WAT        23.1590   34.3440   15.8410 O      22377 WAT       0.0736
  22378 WAT        23.1590   34.3440   16.0910 O      22378 WAT       0.0947
  22379 WAT        23.1590   34.3440   16.3410 O      22379 WAT       0.0866
  22380 WAT        23.1590   34.3440   16.5910 O      22380 WAT       0.0553
  22381 WAT        23.1590   34.3440   25.0910 O      22381 WAT       0.0455
  22382 WAT        23.1590   34.3440   25.3410 O      22382 WAT       0.0548
  22383 WAT        23.1590   34.3440   25.5910 O      22383 WAT       0.0608
  22384 WAT        23.1590   34.3440   25.8410 O      22384 WAT       0.0635
  22385 WAT        23.1590   34.3440   26.0910 O      22385 WAT       0.0634
  22386 WAT        23.1590   34.3440   26.3410 O      22386 WAT       0.0614
  22387 WAT        23.1590   34.3440   26.5910 O      22387 WAT       0.0596
  22388 WAT        23.1590   34.3440   26.8410 O      22388 WAT       0.0600
  22389 WAT        23.1590   34.3440   27.0910 O      22389 WAT       0.0627
  22390 WAT        23.1590   34.3440   27.3410 O      22390 WAT       0.0655
  22391 WAT        23.1590   34.3440   27.5910 O      22391 WAT       0.0650
  22392 WAT        23.1590   34.3440   27.8410 O      22392 WAT       0.0594
  22393 WAT        23.1590   34.3440   28.0910 O      22393 WAT       0.0500
  22394 WAT        23.1590   34.5940   11.5910 O      22394 WAT       0.0575
  22395 WAT        23.1590   34.5940   11.8410 O      22395 WAT       0.1357
  22396 WAT        23.1590   34.5940   12.0910 O      22396 WAT       0.2235
  22397 WAT        23.1590   34.5940   12.3410 O      22397 WAT       0.2626
  22398 WAT        23.1590   34.5940   12.5910 O      22398 WAT       0.2243
  22399 WAT        23.1590   34.5940   12.8410 O      22399 WAT       0.1425
  22400 WAT        23.1590   34.5940   13.0910 O      22400 WAT       0.0692
  22401 WAT        23.1590   34.5940   15.3410 O      22401 WAT       0.0455
  22402 WAT        23.1590   34.5940   15.5910 O      22402 WAT       0.0888
  22403 WAT        23.1590   34.5940   15.8410 O      22403 WAT       0.1378
  22404 WAT        23.1590   34.5940   16.0910 O      22404 WAT       0.1620
  22405 WAT        23.1590   34.5940   16.3410 O      22405 WAT       0.1391
  22406 WAT        23.1590   34.5940   16.5910 O      22406 WAT       0.0857
  22407 WAT        23.1590   34.5940   24.5910 O      22407 WAT       0.0623
  22408 WAT        23.1590   34.5940   24.8410 O      22408 WAT       0.0887
  22409 WAT        23.1590   34.5940   25.0910 O      22409 WAT       0.1113
  22410 WAT        23.1590   34.5940   25.3410 O      22410 WAT       0.1238
  22411 WAT        23.1590   34.5940   25.5910 O      22411 WAT       0.1250
  22412 WAT        23.1590   34.5940   25.8410 O      22412 WAT       0.1176
  22413 WAT        23.1590   34.5940   26.0910 O      22413 WAT       0.1055
  22414 WAT        23.1590   34.5940   26.3410 O      22414 WAT       0.0912
  22415 WAT        23.1590   34.5940   26.5910 O      22415 WAT       0.0776
  22416 WAT        23.1590   34.5940   26.8410 O      22416 WAT       0.0682
  22417 WAT        23.1590   34.5940   27.0910 O      22417 WAT       0.0643
  22418 WAT        23.1590   34.5940   27.3410 O      22418 WAT       0.0638
  22419 WAT        23.1590   34.5940   27.5910 O      22419 WAT       0.0633
  22420 WAT        23.1590   34.5940   27.8410 O      22420 WAT       0.0598
  22421 WAT        23.1590   34.5940   28.0910 O      22421 WAT       0.0530
  22422 WAT        23.1590   34.8440   11.8410 O      22422 WAT       0.0943
  22423 WAT        23.1590   34.8440   12.0910 O      22423 WAT       0.1749
  22424 WAT        23.1590   34.8440   12.3410 O      22424 WAT       0.2327
  22425 WAT        23.1590   34.8440   12.5910 O      22425 WAT       0.2270
  22426 WAT        23.1590   34.8440   12.8410 O      22426 WAT       0.1668
  22427 WAT        23.1590   34.8440   13.0910 O      22427 WAT       0.0954
  22428 WAT        23.1590   34.8440   15.3410 O      22428 WAT       0.0748
  22429 WAT        23.1590   34.8440   15.5910 O      22429 WAT       0.1293
  22430 WAT        23.1590   34.8440   15.8410 O      22430 WAT       0.1796
  22431 WAT        23.1590   34.8440   16.0910 O      22431 WAT       0.1929
  22432 WAT        23.1590   34.8440   16.3410 O      22432 WAT       0.1554
  22433 WAT        23.1590   34.8440   16.5910 O      22433 WAT       0.0929
  22434 WAT        23.1590   34.8440   19.0910 O      22434 WAT       0.0495
  22435 WAT        23.1590   34.8440   19.3410 O      22435 WAT       0.0521
  22436 WAT        23.1590   34.8440   19.5910 O      22436 WAT       0.0472
  22437 WAT        23.1590   34.8440   24.0910 O      22437 WAT       0.0465
  22438 WAT        23.1590   34.8440   24.3410 O      22438 WAT       0.0785
  22439 WAT        23.1590   34.8440   24.5910 O      22439 WAT       0.1205
  22440 WAT        23.1590   34.8440   24.8410 O      22440 WAT       0.1631
  22441 WAT        23.1590   34.8440   25.0910 O      22441 WAT       0.1933
  22442 WAT        23.1590   34.8440   25.3410 O      22442 WAT       0.2016
  22443 WAT        23.1590   34.8440   25.5910 O      22443 WAT       0.1885
  22444 WAT        23.1590   34.8440   25.8410 O      22444 WAT       0.1626
  22445 WAT        23.1590   34.8440   26.0910 O      22445 WAT       0.1331
  22446 WAT        23.1590   34.8440   26.3410 O      22446 WAT       0.1049
  22447 WAT        23.1590   34.8440   26.5910 O      22447 WAT       0.0810
  22448 WAT        23.1590   34.8440   26.8410 O      22448 WAT       0.0644
  22449 WAT        23.1590   34.8440   27.0910 O      22449 WAT       0.0565
  22450 WAT        23.1590   34.8440   27.3410 O      22450 WAT       0.0546
  22451 WAT        23.1590   34.8440   27.5910 O      22451 WAT       0.0548
  22452 WAT        23.1590   34.8440   27.8410 O      22452 WAT       0.0533
  22453 WAT        23.1590   34.8440   28.0910 O      22453 WAT       0.0493
  22454 WAT        23.1590   35.0940   11.8410 O      22454 WAT       0.0475
  22455 WAT        23.1590   35.0940   12.0910 O      22455 WAT       0.0991
  22456 WAT        23.1590   35.0940   12.3410 O      22456 WAT       0.1488
  22457 WAT        23.1590   35.0940   12.5910 O      22457 WAT       0.1651
  22458 WAT        23.1590   35.0940   12.8410 O      22458 WAT       0.1392
  22459 WAT        23.1590   35.0940   13.0910 O      22459 WAT       0.0919
  22460 WAT        23.1590   35.0940   13.3410 O      22460 WAT       0.0489
  22461 WAT        23.1590   35.0940   15.3410 O      22461 WAT       0.0818
  22462 WAT        23.1590   35.0940   15.5910 O      22462 WAT       0.1284
  22463 WAT        23.1590   35.0940   15.8410 O      22463 WAT       0.1618
  22464 WAT        23.1590   35.0940   16.0910 O      22464 WAT       0.1598
  22465 WAT        23.1590   35.0940   16.3410 O      22465 WAT       0.1214
  22466 WAT        23.1590   35.0940   16.5910 O      22466 WAT       0.0712
  22467 WAT        23.1590   35.0940   18.8410 O      22467 WAT       0.0469
  22468 WAT        23.1590   35.0940   19.0910 O      22468 WAT       0.0557
  22469 WAT        23.1590   35.0940   19.3410 O      22469 WAT       0.0565
  22470 WAT        23.1590   35.0940   19.5910 O      22470 WAT       0.0499
  22471 WAT        23.1590   35.0940   24.0910 O      22471 WAT       0.0649
  22472 WAT        23.1590   35.0940   24.3410 O      22472 WAT       0.1061
  22473 WAT        23.1590   35.0940   24.5910 O      22473 WAT       0.1573
  22474 WAT        23.1590   35.0940   24.8410 O      22474 WAT       0.2047
  22475 WAT        23.1590   35.0940   25.0910 O      22475 WAT       0.2318
  22476 WAT        23.1590   35.0940   25.3410 O      22476 WAT       0.2295
  22477 WAT        23.1590   35.0940   25.5910 O      22477 WAT       0.2018
  22478 WAT        23.1590   35.0940   25.8410 O      22478 WAT       0.1619
  22479 WAT        23.1590   35.0940   26.0910 O      22479 WAT       0.1224
  22480 WAT        23.1590   35.0940   26.3410 O      22480 WAT       0.0892
  22481 WAT        23.1590   35.0940   26.5910 O      22481 WAT       0.0638
  22482 WAT        23.1590   35.0940   26.8410 O      22482 WAT       0.0474
  22483 WAT        23.1590   35.3440   12.3410 O      22483 WAT       0.0680
  22484 WAT        23.1590   35.3440   12.5910 O      22484 WAT       0.0850
  22485 WAT        23.1590   35.3440   12.8410 O      22485 WAT       0.0810
  22486 WAT        23.1590   35.3440   13.0910 O      22486 WAT       0.0603
  22487 WAT        23.1590   35.3440   15.3410 O      22487 WAT       0.0584
  22488 WAT        23.1590   35.3440   15.5910 O      22488 WAT       0.0850
  22489 WAT        23.1590   35.3440   15.8410 O      22489 WAT       0.0990
  22490 WAT        23.1590   35.3440   16.0910 O      22490 WAT       0.0911
  22491 WAT        23.1590   35.3440   16.3410 O      22491 WAT       0.0659
  22492 WAT        23.1590   35.3440   24.0910 O      22492 WAT       0.0575
  22493 WAT        23.1590   35.3440   24.3410 O      22493 WAT       0.0920
  22494 WAT        23.1590   35.3440   24.5910 O      22494 WAT       0.1330
  22495 WAT        23.1590   35.3440   24.8410 O      22495 WAT       0.1681
  22496 WAT        23.1590   35.3440   25.0910 O      22496 WAT       0.1840
  22497 WAT        23.1590   35.3440   25.3410 O      22497 WAT       0.1751
  22498 WAT        23.1590   35.3440   25.5910 O      22498 WAT       0.1468
  22499 WAT        23.1590   35.3440   25.8410 O      22499 WAT       0.1112
  22500 WAT        23.1590   35.3440   26.0910 O      22500 WAT       0.0788
  22501 WAT        23.1590   35.3440   26.3410 O      22501 WAT       0.0536
  22502 WAT        23.4090    8.3440   21.5910 O      22502 WAT       0.0565
  22503 WAT        23.4090    8.3440   21.8410 O      22503 WAT       0.0598
  22504 WAT        23.4090    8.3440   22.0910 O      22504 WAT       0.0523
  22505 WAT        23.4090    8.3440   24.3410 O      22505 WAT       0.0512
  22506 WAT        23.4090    8.3440   24.5910 O      22506 WAT       0.0542
  22507 WAT        23.4090    8.3440   24.8410 O      22507 WAT       0.0546
  22508 WAT        23.4090    8.3440   25.0910 O      22508 WAT       0.0543
  22509 WAT        23.4090    8.3440   25.3410 O      22509 WAT       0.0537
  22510 WAT        23.4090    8.3440   25.5910 O      22510 WAT       0.0506
  22511 WAT        23.4090    8.5940   21.5910 O      22511 WAT       0.0475
  22512 WAT        23.4090    8.5940   21.8410 O      22512 WAT       0.0483
  22513 WAT        23.4090    8.5940   24.3410 O      22513 WAT       0.0500
  22514 WAT        23.4090    8.5940   24.5910 O      22514 WAT       0.0552
  22515 WAT        23.4090    8.5940   24.8410 O      22515 WAT       0.0584
  22516 WAT        23.4090    8.5940   25.0910 O      22516 WAT       0.0610
  22517 WAT        23.4090    8.5940   25.3410 O      22517 WAT       0.0619
  22518 WAT        23.4090    8.5940   25.5910 O      22518 WAT       0.0573
  22519 WAT        23.4090    8.5940   25.8410 O      22519 WAT       0.0463
  22520 WAT        23.4090    8.8440   24.5910 O      22520 WAT       0.0458
  22521 WAT        23.4090    8.8440   24.8410 O      22521 WAT       0.0516
  22522 WAT        23.4090    8.8440   25.0910 O      22522 WAT       0.0569
  22523 WAT        23.4090    8.8440   25.3410 O      22523 WAT       0.0589
  22524 WAT        23.4090    8.8440   25.5910 O      22524 WAT       0.0537
  22525 WAT        23.4090    9.0940   25.3410 O      22525 WAT       0.0456
  22526 WAT        23.4090    9.3440   17.8410 O      22526 WAT       0.0489
  22527 WAT        23.4090    9.3440   18.0910 O      22527 WAT       0.0474
  22528 WAT        23.4090    9.5940   17.5910 O      22528 WAT       0.0501
  22529 WAT        23.4090    9.5940   17.8410 O      22529 WAT       0.0589
  22530 WAT        23.4090    9.5940   18.0910 O      22530 WAT       0.0620
  22531 WAT        23.4090    9.5940   18.3410 O      22531 WAT       0.0586
  22532 WAT        23.4090    9.5940   18.5910 O      22532 WAT       0.0501
  22533 WAT        23.4090    9.5940   27.8410 O      22533 WAT       0.0473
  22534 WAT        23.4090    9.5940   28.0910 O      22534 WAT       0.0547
  22535 WAT        23.4090    9.8440   17.5910 O      22535 WAT       0.0505
  22536 WAT        23.4090    9.8440   17.8410 O      22536 WAT       0.0633
  22537 WAT        23.4090    9.8440   18.0910 O      22537 WAT       0.0714
  22538 WAT        23.4090    9.8440   18.3410 O      22538 WAT       0.0729
  22539 WAT        23.4090    9.8440   18.5910 O      22539 WAT       0.0678
  22540 WAT        23.4090    9.8440   18.8410 O      22540 WAT       0.0588
  22541 WAT        23.4090    9.8440   19.0910 O      22541 WAT       0.0490
  22542 WAT        23.4090    9.8440   27.8410 O      22542 WAT       0.0614
  22543 WAT        23.4090    9.8440   28.0910 O      22543 WAT       0.0648
  22544 WAT        23.4090    9.8440   28.3410 O      22544 WAT       0.0475
  22545 WAT        23.4090   10.0940   17.8410 O      22545 WAT       0.0580
  22546 WAT        23.4090   10.0940   18.0910 O      22546 WAT       0.0694
  22547 WAT        23.4090   10.0940   18.3410 O      22547 WAT       0.0764
  22548 WAT        23.4090   10.0940   18.5910 O      22548 WAT       0.0778
  22549 WAT        23.4090   10.0940   18.8410 O      22549 WAT       0.0747
  22550 WAT        23.4090   10.0940   19.0910 O      22550 WAT       0.0692
  22551 WAT        23.4090   10.0940   19.3410 O      22551 WAT       0.0632
  22552 WAT        23.4090   10.0940   19.5910 O      22552 WAT       0.0571
  22553 WAT        23.4090   10.0940   19.8410 O      22553 WAT       0.0491
  22554 WAT        23.4090   10.0940   27.5910 O      22554 WAT       0.0469
  22555 WAT        23.4090   10.0940   27.8410 O      22555 WAT       0.0664
  22556 WAT        23.4090   10.0940   28.0910 O      22556 WAT       0.0645
  22557 WAT        23.4090   10.3440   18.0910 O      22557 WAT       0.0558
  22558 WAT        23.4090   10.3440   18.3410 O      22558 WAT       0.0662
  22559 WAT        23.4090   10.3440   18.5910 O      22559 WAT       0.0743
  22560 WAT        23.4090   10.3440   18.8410 O      22560 WAT       0.0792
  22561 WAT        23.4090   10.3440   19.0910 O      22561 WAT       0.0817
  22562 WAT        23.4090   10.3440   19.3410 O      22562 WAT       0.0826
  22563 WAT        23.4090   10.3440   19.5910 O      22563 WAT       0.0807
  22564 WAT        23.4090   10.3440   19.8410 O      22564 WAT       0.0726
  22565 WAT        23.4090   10.3440   20.0910 O      22565 WAT       0.0565
  22566 WAT        23.4090   10.3440   27.8410 O      22566 WAT       0.0588
  22567 WAT        23.4090   10.3440   28.0910 O      22567 WAT       0.0529
  22568 WAT        23.4090   10.5940   18.3410 O      22568 WAT       0.0471
  22569 WAT        23.4090   10.5940   18.5910 O      22569 WAT       0.0580
  22570 WAT        23.4090   10.5940   18.8410 O      22570 WAT       0.0687
  22571 WAT        23.4090   10.5940   19.0910 O      22571 WAT       0.0789
  22572 WAT        23.4090   10.5940   19.3410 O      22572 WAT       0.0883
  22573 WAT        23.4090   10.5940   19.5910 O      22573 WAT       0.0933
  22574 WAT        23.4090   10.5940   19.8410 O      22574 WAT       0.0879
  22575 WAT        23.4090   10.5940   20.0910 O      22575 WAT       0.0689
  22576 WAT        23.4090   10.8440   18.8410 O      22576 WAT       0.0482
  22577 WAT        23.4090   10.8440   19.0910 O      22577 WAT       0.0615
  22578 WAT        23.4090   10.8440   19.3410 O      22578 WAT       0.0758
  22579 WAT        23.4090   10.8440   19.5910 O      22579 WAT       0.0865
  22580 WAT        23.4090   10.8440   19.8410 O      22580 WAT       0.0854
  22581 WAT        23.4090   10.8440   20.0910 O      22581 WAT       0.0680
  22582 WAT        23.4090   11.0940   19.3410 O      22582 WAT       0.0519
  22583 WAT        23.4090   11.0940   19.5910 O      22583 WAT       0.0639
  22584 WAT        23.4090   11.0940   19.8410 O      22584 WAT       0.0662
  22585 WAT        23.4090   11.0940   20.0910 O      22585 WAT       0.0536
  22586 WAT        23.4090   12.3440   12.5910 O      22586 WAT       0.0528
  22587 WAT        23.4090   12.3440   12.8410 O      22587 WAT       0.0610
  22588 WAT        23.4090   12.3440   13.0910 O      22588 WAT       0.0677
  22589 WAT        23.4090   12.3440   13.3410 O      22589 WAT       0.0705
  22590 WAT        23.4090   12.3440   13.5910 O      22590 WAT       0.0678
  22591 WAT        23.4090   12.3440   13.8410 O      22591 WAT       0.0598
  22592 WAT        23.4090   12.3440   14.0910 O      22592 WAT       0.0496
  22593 WAT        23.4090   12.5940   11.8410 O      22593 WAT       0.0494
  22594 WAT        23.4090   12.5940   12.0910 O      22594 WAT       0.0586
  22595 WAT        23.4090   12.5940   12.3410 O      22595 WAT       0.0702
  22596 WAT        23.4090   12.5940   12.5910 O      22596 WAT       0.0819
  22597 WAT        23.4090   12.5940   12.8410 O      22597 WAT       0.0916
  22598 WAT        23.4090   12.5940   13.0910 O      22598 WAT       0.0966
  22599 WAT        23.4090   12.5940   13.3410 O      22599 WAT       0.0938
  22600 WAT        23.4090   12.5940   13.5910 O      22600 WAT       0.0825
  22601 WAT        23.4090   12.5940   13.8410 O      22601 WAT       0.0657
  22602 WAT        23.4090   12.5940   14.0910 O      22602 WAT       0.0485
  22603 WAT        23.4090   12.8440   11.0910 O      22603 WAT       0.0487
  22604 WAT        23.4090   12.8440   11.3410 O      22604 WAT       0.0506
  22605 WAT        23.4090   12.8440   11.5910 O      22605 WAT       0.0528
  22606 WAT        23.4090   12.8440   11.8410 O      22606 WAT       0.0584
  22607 WAT        23.4090   12.8440   12.0910 O      22607 WAT       0.0685
  22608 WAT        23.4090   12.8440   12.3410 O      22608 WAT       0.0814
  22609 WAT        23.4090   12.8440   12.5910 O      22609 WAT       0.0937
  22610 WAT        23.4090   12.8440   12.8410 O      22610 WAT       0.1014
  22611 WAT        23.4090   12.8440   13.0910 O      22611 WAT       0.1008
  22612 WAT        23.4090   12.8440   13.3410 O      22612 WAT       0.0900
  22613 WAT        23.4090   12.8440   13.5910 O      22613 WAT       0.0714
  22614 WAT        23.4090   12.8440   13.8410 O      22614 WAT       0.0505
  22615 WAT        23.4090   13.0940   10.8410 O      22615 WAT       0.0473
  22616 WAT        23.4090   13.0940   11.0910 O      22616 WAT       0.0485
  22617 WAT        23.4090   13.0940   11.3410 O      22617 WAT       0.0473
  22618 WAT        23.4090   13.0940   11.5910 O      22618 WAT       0.0466
  22619 WAT        23.4090   13.0940   11.8410 O      22619 WAT       0.0495
  22620 WAT        23.4090   13.0940   12.0910 O      22620 WAT       0.0568
  22621 WAT        23.4090   13.0940   12.3410 O      22621 WAT       0.0670
  22622 WAT        23.4090   13.0940   12.5910 O      22622 WAT       0.0762
  22623 WAT        23.4090   13.0940   12.8410 O      22623 WAT       0.0800
  22624 WAT        23.4090   13.0940   13.0910 O      22624 WAT       0.0748
  22625 WAT        23.4090   13.0940   13.3410 O      22625 WAT       0.0608
  22626 WAT        23.4090   13.8440   27.8410 O      22626 WAT       0.0495
  22627 WAT        23.4090   13.8440   28.0910 O      22627 WAT       0.0575
  22628 WAT        23.4090   14.0940   27.5910 O      22628 WAT       0.0454
  22629 WAT        23.4090   14.0940   27.8410 O      22629 WAT       0.0865
  22630 WAT        23.4090   14.0940   28.0910 O      22630 WAT       0.1015
  22631 WAT        23.4090   14.0940   28.3410 O      22631 WAT       0.0738
  22632 WAT        23.4090   14.3440   27.5910 O      22632 WAT       0.0614
  22633 WAT        23.4090   14.3440   27.8410 O      22633 WAT       0.1163
  22634 WAT        23.4090   14.3440   28.0910 O      22634 WAT       0.1368
  22635 WAT        23.4090   14.3440   28.3410 O      22635 WAT       0.1004
  22636 WAT        23.4090   14.3440   28.5910 O      22636 WAT       0.0459
  22637 WAT        23.4090   14.5940   27.5910 O      22637 WAT       0.0629
  22638 WAT        23.4090   14.5940   27.8410 O      22638 WAT       0.1178
  22639 WAT        23.4090   14.5940   28.0910 O      22639 WAT       0.1380
  22640 WAT        23.4090   14.5940   28.3410 O      22640 WAT       0.1014
  22641 WAT        23.4090   14.5940   28.5910 O      22641 WAT       0.0468
  22642 WAT        23.4090   14.8440   27.5910 O      22642 WAT       0.0482
  22643 WAT        23.4090   14.8440   27.8410 O      22643 WAT       0.0887
  22644 WAT        23.4090   14.8440   28.0910 O      22644 WAT       0.1027
  22645 WAT        23.4090   14.8440   28.3410 O      22645 WAT       0.0751
  22646 WAT        23.4090   15.0940   27.8410 O      22646 WAT       0.0491
  22647 WAT        23.4090   15.0940   28.0910 O      22647 WAT       0.0557
  22648 WAT        23.4090   15.3440    9.0910 O      22648 WAT       0.0468
  22649 WAT        23.4090   15.3440    9.3410 O      22649 WAT       0.0490
  22650 WAT        23.4090   15.3440   19.5910 O      22650 WAT       0.0453
  22651 WAT        23.4090   15.3440   19.8410 O      22651 WAT       0.0641
  22652 WAT        23.4090   15.3440   20.0910 O      22652 WAT       0.0594
  22653 WAT        23.4090   15.5940    8.8410 O      22653 WAT       0.0465
  22654 WAT        23.4090   15.5940    9.0910 O      22654 WAT       0.0515
  22655 WAT        23.4090   15.5940    9.3410 O      22655 WAT       0.0516
  22656 WAT        23.4090   15.5940   19.5910 O      22656 WAT       0.0716
  22657 WAT        23.4090   15.5940   19.8410 O      22657 WAT       0.1035
  22658 WAT        23.4090   15.5940   20.0910 O      22658 WAT       0.0979
  22659 WAT        23.4090   15.5940   20.3410 O      22659 WAT       0.0588
  22660 WAT        23.4090   15.8440    8.0910 O      22660 WAT       0.0476
  22661 WAT        23.4090   15.8440    8.3410 O      22661 WAT       0.0479
  22662 WAT        23.4090   15.8440    8.5910 O      22662 WAT       0.0473
  22663 WAT        23.4090   15.8440    8.8410 O      22663 WAT       0.0482
  22664 WAT        23.4090   15.8440    9.0910 O      22664 WAT       0.0500
  22665 WAT        23.4090   15.8440    9.3410 O      22665 WAT       0.0479
  22666 WAT        23.4090   15.8440   19.5910 O      22666 WAT       0.0827
  22667 WAT        23.4090   15.8440   19.8410 O      22667 WAT       0.1231
  22668 WAT        23.4090   15.8440   20.0910 O      22668 WAT       0.1197
  22669 WAT        23.4090   15.8440   20.3410 O      22669 WAT       0.0744
  22670 WAT        23.4090   16.0940    8.0910 O      22670 WAT       0.0470
  22671 WAT        23.4090   16.0940    8.3410 O      22671 WAT       0.0466
  22672 WAT        23.4090   16.0940   19.5910 O      22672 WAT       0.0703
  22673 WAT        23.4090   16.0940   19.8410 O      22673 WAT       0.1078
  22674 WAT        23.4090   16.0940   20.0910 O      22674 WAT       0.1082
  22675 WAT        23.4090   16.0940   20.3410 O      22675 WAT       0.0697
  22676 WAT        23.4090   16.3440   19.8410 O      22676 WAT       0.0693
  22677 WAT        23.4090   16.3440   20.0910 O      22677 WAT       0.0716
  22678 WAT        23.4090   16.3440   20.3410 O      22678 WAT       0.0475
  22679 WAT        23.4090   17.0940    3.3410 O      22679 WAT       0.0465
  22680 WAT        23.4090   17.0940    3.5910 O      22680 WAT       0.0464
  22681 WAT        23.4090   17.3440    2.8410 O      22681 WAT       0.0450
  22682 WAT        23.4090   17.3440    3.0910 O      22682 WAT       0.0500
  22683 WAT        23.4090   17.3440    3.3410 O      22683 WAT       0.0516
  22684 WAT        23.4090   17.3440    3.5910 O      22684 WAT       0.0495
  22685 WAT        23.4090   17.3440    5.3410 O      22685 WAT       0.0499
  22686 WAT        23.4090   17.3440    5.5910 O      22686 WAT       0.0601
  22687 WAT        23.4090   17.3440    5.8410 O      22687 WAT       0.0670
  22688 WAT        23.4090   17.3440    6.0910 O      22688 WAT       0.0678
  22689 WAT        23.4090   17.3440    6.3410 O      22689 WAT       0.0613
  22690 WAT        23.4090   17.3440    6.5910 O      22690 WAT       0.0493
  22691 WAT        23.4090   17.5940    2.8410 O      22691 WAT       0.0472
  22692 WAT        23.4090   17.5940    3.0910 O      22692 WAT       0.0502
  22693 WAT        23.4090   17.5940    3.3410 O      22693 WAT       0.0493
  22694 WAT        23.4090   17.5940    5.0910 O      22694 WAT       0.0470
  22695 WAT        23.4090   17.5940    5.3410 O      22695 WAT       0.0624
  22696 WAT        23.4090   17.5940    5.5910 O      22696 WAT       0.0785
  22697 WAT        23.4090   17.5940    5.8410 O      22697 WAT       0.0899
  22698 WAT        23.4090   17.5940    6.0910 O      22698 WAT       0.0914
  22699 WAT        23.4090   17.5940    6.3410 O      22699 WAT       0.0807
  22700 WAT        23.4090   17.5940    6.5910 O      22700 WAT       0.0607
  22701 WAT        23.4090   17.8440    5.3410 O      22701 WAT       0.0627
  22702 WAT        23.4090   17.8440    5.5910 O      22702 WAT       0.0829
  22703 WAT        23.4090   17.8440    5.8410 O      22703 WAT       0.0980
  22704 WAT        23.4090   17.8440    6.0910 O      22704 WAT       0.1009
  22705 WAT        23.4090   17.8440    6.3410 O      22705 WAT       0.0879
  22706 WAT        23.4090   17.8440    6.5910 O      22706 WAT       0.0631
  22707 WAT        23.4090   18.0940    5.3410 O      22707 WAT       0.0479
  22708 WAT        23.4090   18.0940    5.5910 O      22708 WAT       0.0668
  22709 WAT        23.4090   18.0940    5.8410 O      22709 WAT       0.0821
  22710 WAT        23.4090   18.0940    6.0910 O      22710 WAT       0.0863
  22711 WAT        23.4090   18.0940    6.3410 O      22711 WAT       0.0751
  22712 WAT        23.4090   18.0940    6.5910 O      22712 WAT       0.0523
  22713 WAT        23.4090   18.3440    5.8410 O      22713 WAT       0.0510
  22714 WAT        23.4090   18.3440    6.0910 O      22714 WAT       0.0551
  22715 WAT        23.4090   18.3440    6.3410 O      22715 WAT       0.0483
  22716 WAT        23.4090   22.5940   29.0910 O      22716 WAT       0.0662
  22717 WAT        23.4090   22.5940   29.3410 O      22717 WAT       0.0859
  22718 WAT        23.4090   22.5940   29.5910 O      22718 WAT       0.0704
  22719 WAT        23.4090   22.8440   28.8410 O      22719 WAT       0.0624
  22720 WAT        23.4090   22.8440   29.0910 O      22720 WAT       0.1206
  22721 WAT        23.4090   22.8440   29.3410 O      22721 WAT       0.1510
  22722 WAT        23.4090   22.8440   29.5910 O      22722 WAT       0.1206
  22723 WAT        23.4090   23.0940   28.8410 O      22723 WAT       0.0776
  22724 WAT        23.4090   23.0940   29.0910 O      22724 WAT       0.1444
  22725 WAT        23.4090   23.0940   29.3410 O      22725 WAT       0.1752
  22726 WAT        23.4090   23.0940   29.5910 O      22726 WAT       0.1364
  22727 WAT        23.4090   23.3440   28.8410 O      22727 WAT       0.0630
  22728 WAT        23.4090   23.3440   29.0910 O      22728 WAT       0.1136
  22729 WAT        23.4090   23.3440   29.3410 O      22729 WAT       0.1339
  22730 WAT        23.4090   23.3440   29.5910 O      22730 WAT       0.1016
  22731 WAT        23.4090   23.5940   19.8410 O      22731 WAT       0.0632
  22732 WAT        23.4090   23.5940   20.0910 O      22732 WAT       0.0609
  22733 WAT        23.4090   23.5940   29.0910 O      22733 WAT       0.0584
  22734 WAT        23.4090   23.5940   29.3410 O      22734 WAT       0.0670
  22735 WAT        23.4090   23.5940   29.5910 O      22735 WAT       0.0496
  22736 WAT        23.4090   23.8440   19.5910 O      22736 WAT       0.0538
  22737 WAT        23.4090   23.8440   19.8410 O      22737 WAT       0.0766
  22738 WAT        23.4090   23.8440   20.0910 O      22738 WAT       0.0752
  22739 WAT        23.4090   23.8440   20.3410 O      22739 WAT       0.0550
  22740 WAT        23.4090   24.0940   19.5910 O      22740 WAT       0.0508
  22741 WAT        23.4090   24.0940   19.8410 O      22741 WAT       0.0713
  22742 WAT        23.4090   24.0940   20.0910 O      22742 WAT       0.0708
  22743 WAT        23.4090   24.0940   20.3410 O      22743 WAT       0.0545
  22744 WAT        23.4090   24.3440   19.8410 O      22744 WAT       0.0540
  22745 WAT        23.4090   24.3440   20.0910 O      22745 WAT       0.0539
  22746 WAT        23.4090   24.3440   21.8410 O      22746 WAT       0.0497
  22747 WAT        23.4090   24.3440   22.0910 O      22747 WAT       0.0503
  22748 WAT        23.4090   24.5940   21.8410 O      22748 WAT       0.0537
  22749 WAT        23.4090   24.5940   22.0910 O      22749 WAT       0.0565
  22750 WAT        23.4090   24.5940   22.3410 O      22750 WAT       0.0475
  22751 WAT        23.4090   24.8440   21.8410 O      22751 WAT       0.0467
  22752 WAT        23.4090   24.8440   22.0910 O      22752 WAT       0.0504
  22753 WAT        23.4090   25.5940   18.3410 O      22753 WAT       0.0667
  22754 WAT        23.4090   25.5940   18.5910 O      22754 WAT       0.0822
  22755 WAT        23.4090   25.5940   18.8410 O      22755 WAT       0.0810
  22756 WAT        23.4090   25.5940   19.0910 O      22756 WAT       0.0627
  22757 WAT        23.4090   25.8440   17.5910 O      22757 WAT       0.0535
  22758 WAT        23.4090   25.8440   17.8410 O      22758 WAT       0.0877
  22759 WAT        23.4090   25.8440   18.0910 O      22759 WAT       0.1229
  22760 WAT        23.4090   25.8440   18.3410 O      22760 WAT       0.1495
  22761 WAT        23.4090   25.8440   18.5910 O      22761 WAT       0.1532
  22762 WAT        23.4090   25.8440   18.8410 O      22762 WAT       0.1269
  22763 WAT        23.4090   25.8440   19.0910 O      22763 WAT       0.0825
  22764 WAT        23.4090   26.0940   17.3410 O      22764 WAT       0.0742
  22765 WAT        23.4090   26.0940   17.5910 O      22765 WAT       0.1331
  22766 WAT        23.4090   26.0940   17.8410 O      22766 WAT       0.1905
  22767 WAT        23.4090   26.0940   18.0910 O      22767 WAT       0.2273
  22768 WAT        23.4090   26.0940   18.3410 O      22768 WAT       0.2329
  22769 WAT        23.4090   26.0940   18.5910 O      22769 WAT       0.2022
  22770 WAT        23.4090   26.0940   18.8410 O      22770 WAT       0.1435
  22771 WAT        23.4090   26.0940   19.0910 O      22771 WAT       0.0806
  22772 WAT        23.4090   26.0940   28.8410 O      22772 WAT       0.0626
  22773 WAT        23.4090   26.0940   29.0910 O      22773 WAT       0.0678
  22774 WAT        23.4090   26.0940   29.3410 O      22774 WAT       0.0519
  22775 WAT        23.4090   26.3440   17.0910 O      22775 WAT       0.0599
  22776 WAT        23.4090   26.3440   17.3410 O      22776 WAT       0.1291
  22777 WAT        23.4090   26.3440   17.5910 O      22777 WAT       0.2129
  22778 WAT        23.4090   26.3440   17.8410 O      22778 WAT       0.2743
  22779 WAT        23.4090   26.3440   18.0910 O      22779 WAT       0.2865
  22780 WAT        23.4090   26.3440   18.3410 O      22780 WAT       0.2518
  22781 WAT        23.4090   26.3440   18.5910 O      22781 WAT       0.1879
  22782 WAT        23.4090   26.3440   18.8410 O      22782 WAT       0.1161
  22783 WAT        23.4090   26.3440   19.0910 O      22783 WAT       0.0579
  22784 WAT        23.4090   26.3440   28.3410 O      22784 WAT       0.0463
  22785 WAT        23.4090   26.3440   28.5910 O      22785 WAT       0.0986
  22786 WAT        23.4090   26.3440   28.8410 O      22786 WAT       0.1470
  22787 WAT        23.4090   26.3440   29.0910 O      22787 WAT       0.1536
  22788 WAT        23.4090   26.3440   29.3410 O      22788 WAT       0.1130
  22789 WAT        23.4090   26.3440   29.5910 O      22789 WAT       0.0582
  22790 WAT        23.4090   26.5940   17.0910 O      22790 WAT       0.0706
  22791 WAT        23.4090   26.5940   17.3410 O      22791 WAT       0.1440
  22792 WAT        23.4090   26.5940   17.5910 O      22792 WAT       0.2221
  22793 WAT        23.4090   26.5940   17.8410 O      22793 WAT       0.2628
  22794 WAT        23.4090   26.5940   18.0910 O      22794 WAT       0.2462
  22795 WAT        23.4090   26.5940   18.3410 O      22795 WAT       0.1899
  22796 WAT        23.4090   26.5940   18.5910 O      22796 WAT       0.1236
  22797 WAT        23.4090   26.5940   18.8410 O      22797 WAT       0.0676
  22798 WAT        23.4090   26.5940   28.3410 O      22798 WAT       0.0853
  22799 WAT        23.4090   26.5940   28.5910 O      22799 WAT       0.1783
  22800 WAT        23.4090   26.5940   28.8410 O      22800 WAT       0.2598
  22801 WAT        23.4090   26.5940   29.0910 O      22801 WAT       0.2647
  22802 WAT        23.4090   26.5940   29.3410 O      22802 WAT       0.1897
  22803 WAT        23.4090   26.5940   29.5910 O      22803 WAT       0.0953
  22804 WAT        23.4090   26.8440   17.0910 O      22804 WAT       0.0536
  22805 WAT        23.4090   26.8440   17.3410 O      22805 WAT       0.1045
  22806 WAT        23.4090   26.8440   17.5910 O      22806 WAT       0.1526
  22807 WAT        23.4090   26.8440   17.8410 O      22807 WAT       0.1690
  22808 WAT        23.4090   26.8440   18.0910 O      22808 WAT       0.1456
  22809 WAT        23.4090   26.8440   18.3410 O      22809 WAT       0.1013
  22810 WAT        23.4090   26.8440   18.5910 O      22810 WAT       0.0589
  22811 WAT        23.4090   26.8440   28.3410 O      22811 WAT       0.1163
  22812 WAT        23.4090   26.8440   28.5910 O      22812 WAT       0.2413
  22813 WAT        23.4090   26.8440   28.8410 O      22813 WAT       0.3483
  22814 WAT        23.4090   26.8440   29.0910 O      22814 WAT       0.3511
  22815 WAT        23.4090   26.8440   29.3410 O      22815 WAT       0.2486
  22816 WAT        23.4090   26.8440   29.5910 O      22816 WAT       0.1235
  22817 WAT        23.4090   27.0940   17.3410 O      22817 WAT       0.0504
  22818 WAT        23.4090   27.0940   17.5910 O      22818 WAT       0.0705
  22819 WAT        23.4090   27.0940   17.8410 O      22819 WAT       0.0745
  22820 WAT        23.4090   27.0940   18.0910 O      22820 WAT       0.0607
  22821 WAT        23.4090   27.0940   28.3410 O      22821 WAT       0.1171
  22822 WAT        23.4090   27.0940   28.5910 O      22822 WAT       0.2445
  22823 WAT        23.4090   27.0940   28.8410 O      22823 WAT       0.3552
  22824 WAT        23.4090   27.0940   29.0910 O      22824 WAT       0.3607
  22825 WAT        23.4090   27.0940   29.3410 O      22825 WAT       0.2573
  22826 WAT        23.4090   27.0940   29.5910 O      22826 WAT       0.1284
  22827 WAT        23.4090   27.3440   28.3410 O      22827 WAT       0.0868
  22828 WAT        23.4090   27.3440   28.5910 O      22828 WAT       0.1852
  22829 WAT        23.4090   27.3440   28.8410 O      22829 WAT       0.2755
  22830 WAT        23.4090   27.3440   29.0910 O      22830 WAT       0.2872
  22831 WAT        23.4090   27.3440   29.3410 O      22831 WAT       0.2102
  22832 WAT        23.4090   27.3440   29.5910 O      22832 WAT       0.1071
  22833 WAT        23.4090   27.5940   26.5910 O      22833 WAT       0.0659
  22834 WAT        23.4090   27.5940   26.8410 O      22834 WAT       0.0633
  22835 WAT        23.4090   27.5940   28.3410 O      22835 WAT       0.0472
  22836 WAT        23.4090   27.5940   28.5910 O      22836 WAT       0.1046
  22837 WAT        23.4090   27.5940   28.8410 O      22837 WAT       0.1620
  22838 WAT        23.4090   27.5940   29.0910 O      22838 WAT       0.1762
  22839 WAT        23.4090   27.5940   29.3410 O      22839 WAT       0.1343
  22840 WAT        23.4090   27.5940   29.5910 O      22840 WAT       0.0709
  22841 WAT        23.4090   27.8440   26.3410 O      22841 WAT       0.1011
  22842 WAT        23.4090   27.8440   26.5910 O      22842 WAT       0.1541
  22843 WAT        23.4090   27.8440   26.8410 O      22843 WAT       0.1476
  22844 WAT        23.4090   27.8440   27.0910 O      22844 WAT       0.0898
  22845 WAT        23.4090   27.8440   28.8410 O      22845 WAT       0.0719
  22846 WAT        23.4090   27.8440   29.0910 O      22846 WAT       0.0825
  22847 WAT        23.4090   27.8440   29.3410 O      22847 WAT       0.0662
  22848 WAT        23.4090   28.0940   26.0910 O      22848 WAT       0.0769
  22849 WAT        23.4090   28.0940   26.3410 O      22849 WAT       0.1891
  22850 WAT        23.4090   28.0940   26.5910 O      22850 WAT       0.2876
  22851 WAT        23.4090   28.0940   26.8410 O      22851 WAT       0.2746
  22852 WAT        23.4090   28.0940   27.0910 O      22852 WAT       0.1661
  22853 WAT        23.4090   28.0940   27.3410 O      22853 WAT       0.0638
  22854 WAT        23.4090   28.3440   15.8410 O      22854 WAT       0.0585
  22855 WAT        23.4090   28.3440   16.0910 O      22855 WAT       0.0716
  22856 WAT        23.4090   28.3440   16.3410 O      22856 WAT       0.0714
  22857 WAT        23.4090   28.3440   16.5910 O      22857 WAT       0.0558
  22858 WAT        23.4090   28.3440   26.0910 O      22858 WAT       0.1140
  22859 WAT        23.4090   28.3440   26.3410 O      22859 WAT       0.2792
  22860 WAT        23.4090   28.3440   26.5910 O      22860 WAT       0.4240
  22861 WAT        23.4090   28.3440   26.8410 O      22861 WAT       0.4032
  22862 WAT        23.4090   28.3440   27.0910 O      22862 WAT       0.2419
  22863 WAT        23.4090   28.3440   27.3410 O      22863 WAT       0.0920
  22864 WAT        23.4090   28.5940   15.5910 O      22864 WAT       0.0470
  22865 WAT        23.4090   28.5940   15.8410 O      22865 WAT       0.0794
  22866 WAT        23.4090   28.5940   16.0910 O      22866 WAT       0.1116
  22867 WAT        23.4090   28.5940   16.3410 O      22867 WAT       0.1249
  22868 WAT        23.4090   28.5940   16.5910 O      22868 WAT       0.1066
  22869 WAT        23.4090   28.5940   16.8410 O      22869 WAT       0.0677
  22870 WAT        23.4090   28.5940   26.0910 O      22870 WAT       0.1307
  22871 WAT        23.4090   28.5940   26.3410 O      22871 WAT       0.3202
  22872 WAT        23.4090   28.5940   26.5910 O      22872 WAT       0.4856
  22873 WAT        23.4090   28.5940   26.8410 O      22873 WAT       0.4597
  22874 WAT        23.4090   28.5940   27.0910 O      22874 WAT       0.2734
  22875 WAT        23.4090   28.5940   27.3410 O      22875 WAT       0.1026
  22876 WAT        23.4090   28.8440   15.8410 O      22876 WAT       0.0762
  22877 WAT        23.4090   28.8440   16.0910 O      22877 WAT       0.1217
  22878 WAT        23.4090   28.8440   16.3410 O      22878 WAT       0.1501
  22879 WAT        23.4090   28.8440   16.5910 O      22879 WAT       0.1377
  22880 WAT        23.4090   28.8440   16.8410 O      22880 WAT       0.0919
  22881 WAT        23.4090   28.8440   17.0910 O      22881 WAT       0.0452
  22882 WAT        23.4090   28.8440   26.0910 O      22882 WAT       0.1138
  22883 WAT        23.4090   28.8440   26.3410 O      22883 WAT       0.2797
  22884 WAT        23.4090   28.8440   26.5910 O      22884 WAT       0.4238
  22885 WAT        23.4090   28.8440   26.8410 O      22885 WAT       0.3994
  22886 WAT        23.4090   28.8440   27.0910 O      22886 WAT       0.2354
  22887 WAT        23.4090   28.8440   27.3410 O      22887 WAT       0.0869
  22888 WAT        23.4090   29.0940   15.8410 O      22888 WAT       0.0513
  22889 WAT        23.4090   29.0940   16.0910 O      22889 WAT       0.0915
  22890 WAT        23.4090   29.0940   16.3410 O      22890 WAT       0.1219
  22891 WAT        23.4090   29.0940   16.5910 O      22891 WAT       0.1183
  22892 WAT        23.4090   29.0940   16.8410 O      22892 WAT       0.0824
  22893 WAT        23.4090   29.0940   26.0910 O      22893 WAT       0.0739
  22894 WAT        23.4090   29.0940   26.3410 O      22894 WAT       0.1829
  22895 WAT        23.4090   29.0940   26.5910 O      22895 WAT       0.2769
  22896 WAT        23.4090   29.0940   26.8410 O      22896 WAT       0.2597
  22897 WAT        23.4090   29.0940   27.0910 O      22897 WAT       0.1515
  22898 WAT        23.4090   29.0940   27.3410 O      22898 WAT       0.0545
  22899 WAT        23.4090   29.3440   16.0910 O      22899 WAT       0.0462
  22900 WAT        23.4090   29.3440   16.3410 O      22900 WAT       0.0657
  22901 WAT        23.4090   29.3440   16.5910 O      22901 WAT       0.0666
  22902 WAT        23.4090   29.3440   16.8410 O      22902 WAT       0.0480
  22903 WAT        23.4090   29.3440   26.3410 O      22903 WAT       0.0880
  22904 WAT        23.4090   29.3440   26.5910 O      22904 WAT       0.1332
  22905 WAT        23.4090   29.3440   26.8410 O      22905 WAT       0.1240
  22906 WAT        23.4090   29.3440   27.0910 O      22906 WAT       0.0712
  22907 WAT        23.4090   29.5940   26.5910 O      22907 WAT       0.0462
  22908 WAT        23.4090   33.3440   27.3410 O      22908 WAT       0.0471
  22909 WAT        23.4090   33.5940   27.0910 O      22909 WAT       0.0570
  22910 WAT        23.4090   33.5940   27.3410 O      22910 WAT       0.0637
  22911 WAT        23.4090   33.5940   27.5910 O      22911 WAT       0.0604
  22912 WAT        23.4090   33.5940   27.8410 O      22912 WAT       0.0486
  22913 WAT        23.4090   33.8440   11.5910 O      22913 WAT       0.0486
  22914 WAT        23.4090   33.8440   11.8410 O      22914 WAT       0.0761
  22915 WAT        23.4090   33.8440   12.0910 O      22915 WAT       0.0814
  22916 WAT        23.4090   33.8440   12.3410 O      22916 WAT       0.0601
  22917 WAT        23.4090   33.8440   26.8410 O      22917 WAT       0.0513
  22918 WAT        23.4090   33.8440   27.0910 O      22918 WAT       0.0664
  22919 WAT        23.4090   33.8440   27.3410 O      22919 WAT       0.0755
  22920 WAT        23.4090   33.8440   27.5910 O      22920 WAT       0.0743
  22921 WAT        23.4090   33.8440   27.8410 O      22921 WAT       0.0632
  22922 WAT        23.4090   33.8440   28.0910 O      22922 WAT       0.0474
  22923 WAT        23.4090   34.0940   11.5910 O      22923 WAT       0.0682
  22924 WAT        23.4090   34.0940   11.8410 O      22924 WAT       0.1205
  22925 WAT        23.4090   34.0940   12.0910 O      22925 WAT       0.1465
  22926 WAT        23.4090   34.0940   12.3410 O      22926 WAT       0.1242
  22927 WAT        23.4090   34.0940   12.5910 O      22927 WAT       0.0744
  22928 WAT        23.4090   34.0940   26.8410 O      22928 WAT       0.0576
  22929 WAT        23.4090   34.0940   27.0910 O      22929 WAT       0.0710
  22930 WAT        23.4090   34.0940   27.3410 O      22930 WAT       0.0802
  22931 WAT        23.4090   34.0940   27.5910 O      22931 WAT       0.0808
  22932 WAT        23.4090   34.0940   27.8410 O      22932 WAT       0.0722
  22933 WAT        23.4090   34.0940   28.0910 O      22933 WAT       0.0581
  22934 WAT        23.4090   34.3440   11.5910 O      22934 WAT       0.0722
  22935 WAT        23.4090   34.3440   11.8410 O      22935 WAT       0.1436
  22936 WAT        23.4090   34.3440   12.0910 O      22936 WAT       0.1973
  22937 WAT        23.4090   34.3440   12.3410 O      22937 WAT       0.1902
  22938 WAT        23.4090   34.3440   12.5910 O      22938 WAT       0.1305
  22939 WAT        23.4090   34.3440   12.8410 O      22939 WAT       0.0646
  22940 WAT        23.4090   34.3440   15.8410 O      22940 WAT       0.0576
  22941 WAT        23.4090   34.3440   16.0910 O      22941 WAT       0.0830
  22942 WAT        23.4090   34.3440   16.3410 O      22942 WAT       0.0840
  22943 WAT        23.4090   34.3440   16.5910 O      22943 WAT       0.0591
  22944 WAT        23.4090   34.3440   25.3410 O      22944 WAT       0.0501
  22945 WAT        23.4090   34.3440   25.5910 O      22945 WAT       0.0540
  22946 WAT        23.4090   34.3440   25.8410 O      22946 WAT       0.0546
  22947 WAT        23.4090   34.3440   26.0910 O      22947 WAT       0.0536
  22948 WAT        23.4090   34.3440   26.3410 O      22948 WAT       0.0532
  22949 WAT        23.4090   34.3440   26.5910 O      22949 WAT       0.0559
  22950 WAT        23.4090   34.3440   26.8410 O      22950 WAT       0.0626
  22951 WAT        23.4090   34.3440   27.0910 O      22951 WAT       0.0715
  22952 WAT        23.4090   34.3440   27.3410 O      22952 WAT       0.0786
  22953 WAT        23.4090   34.3440   27.5910 O      22953 WAT       0.0802
  22954 WAT        23.4090   34.3440   27.8410 O      22954 WAT       0.0745
  22955 WAT        23.4090   34.3440   28.0910 O      22955 WAT       0.0638
  22956 WAT        23.4090   34.3440   28.3410 O      22956 WAT       0.0513
  22957 WAT        23.4090   34.5940   11.5910 O      22957 WAT       0.0566
  22958 WAT        23.4090   34.5940   11.8410 O      22958 WAT       0.1262
  22959 WAT        23.4090   34.5940   12.0910 O      22959 WAT       0.1948
  22960 WAT        23.4090   34.5940   12.3410 O      22960 WAT       0.2122
  22961 WAT        23.4090   34.5940   12.5910 O      22961 WAT       0.1657
  22962 WAT        23.4090   34.5940   12.8410 O      22962 WAT       0.0942
  22963 WAT        23.4090   34.5940   15.5910 O      22963 WAT       0.0560
  22964 WAT        23.4090   34.5940   15.8410 O      22964 WAT       0.0986
  22965 WAT        23.4090   34.5940   16.0910 O      22965 WAT       0.1289
  22966 WAT        23.4090   34.5940   16.3410 O      22966 WAT       0.1217
  22967 WAT        23.4090   34.5940   16.5910 O      22967 WAT       0.0818
  22968 WAT        23.4090   34.5940   19.0910 O      22968 WAT       0.0458
  22969 WAT        23.4090   34.5940   19.3410 O      22969 WAT       0.0510
  22970 WAT        23.4090   34.5940   19.5910 O      22970 WAT       0.0500
  22971 WAT        23.4090   34.5940   24.5910 O      22971 WAT       0.0572
  22972 WAT        23.4090   34.5940   24.8410 O      22972 WAT       0.0812
  22973 WAT        23.4090   34.5940   25.0910 O      22973 WAT       0.1006
  22974 WAT        23.4090   34.5940   25.3410 O      22974 WAT       0.1095
  22975 WAT        23.4090   34.5940   25.5910 O      22975 WAT       0.1070
  22976 WAT        23.4090   34.5940   25.8410 O      22976 WAT       0.0969
  22977 WAT        23.4090   34.5940   26.0910 O      22977 WAT       0.0839
  22978 WAT        23.4090   34.5940   26.3410 O      22978 WAT       0.0724
  22979 WAT        23.4090   34.5940   26.5910 O      22979 WAT       0.0652
  22980 WAT        23.4090   34.5940   26.8410 O      22980 WAT       0.0638
  22981 WAT        23.4090   34.5940   27.0910 O      22981 WAT       0.0672
  22982 WAT        23.4090   34.5940   27.3410 O      22982 WAT       0.0719
  22983 WAT        23.4090   34.5940   27.5910 O      22983 WAT       0.0740
  22984 WAT        23.4090   34.5940   27.8410 O      22984 WAT       0.0710
  22985 WAT        23.4090   34.5940   28.0910 O      22985 WAT       0.0637
  22986 WAT        23.4090   34.5940   28.3410 O      22986 WAT       0.0539
  22987 WAT        23.4090   34.8440   11.8410 O      22987 WAT       0.0806
  22988 WAT        23.4090   34.8440   12.0910 O      22988 WAT       0.1393
  22989 WAT        23.4090   34.8440   12.3410 O      22989 WAT       0.1708
  22990 WAT        23.4090   34.8440   12.5910 O      22990 WAT       0.1511
  22991 WAT        23.4090   34.8440   12.8410 O      22991 WAT       0.0984
  22992 WAT        23.4090   34.8440   13.0910 O      22992 WAT       0.0482
  22993 WAT        23.4090   34.8440   15.5910 O      22993 WAT       0.0775
  22994 WAT        23.4090   34.8440   15.8410 O      22994 WAT       0.1206
  22995 WAT        23.4090   34.8440   16.0910 O      22995 WAT       0.1428
  22996 WAT        23.4090   34.8440   16.3410 O      22996 WAT       0.1254
  22997 WAT        23.4090   34.8440   16.5910 O      22997 WAT       0.0807
  22998 WAT        23.4090   34.8440   18.8410 O      22998 WAT       0.0575
  22999 WAT        23.4090   34.8440   19.0910 O      22999 WAT       0.0695
  23000 WAT        23.4090   34.8440   19.3410 O      23000 WAT       0.0737
  23001 WAT        23.4090   34.8440   19.5910 O      23001 WAT       0.0696
  23002 WAT        23.4090   34.8440   19.8410 O      23002 WAT       0.0576
  23003 WAT        23.4090   34.8440   24.3410 O      23003 WAT       0.0694
  23004 WAT        23.4090   34.8440   24.5910 O      23004 WAT       0.1072
  23005 WAT        23.4090   34.8440   24.8410 O      23005 WAT       0.1454
  23006 WAT        23.4090   34.8440   25.0910 O      23006 WAT       0.1708
  23007 WAT        23.4090   34.8440   25.3410 O      23007 WAT       0.1747
  23008 WAT        23.4090   34.8440   25.5910 O      23008 WAT       0.1583
  23009 WAT        23.4090   34.8440   25.8410 O      23009 WAT       0.1312
  23010 WAT        23.4090   34.8440   26.0910 O      23010 WAT       0.1032
  23011 WAT        23.4090   34.8440   26.3410 O      23011 WAT       0.0801
  23012 WAT        23.4090   34.8440   26.5910 O      23012 WAT       0.0645
  23013 WAT        23.4090   34.8440   26.8410 O      23013 WAT       0.0571
  23014 WAT        23.4090   34.8440   27.0910 O      23014 WAT       0.0569
  23015 WAT        23.4090   34.8440   27.3410 O      23015 WAT       0.0602
  23016 WAT        23.4090   34.8440   27.5910 O      23016 WAT       0.0629
  23017 WAT        23.4090   34.8440   27.8410 O      23017 WAT       0.0620
  23018 WAT        23.4090   34.8440   28.0910 O      23018 WAT       0.0573
  23019 WAT        23.4090   34.8440   28.3410 O      23019 WAT       0.0498
  23020 WAT        23.4090   35.0940   12.0910 O      23020 WAT       0.0718
  23021 WAT        23.4090   35.0940   12.3410 O      23021 WAT       0.0988
  23022 WAT        23.4090   35.0940   12.5910 O      23022 WAT       0.0987
  23023 WAT        23.4090   35.0940   12.8410 O      23023 WAT       0.0733
  23024 WAT        23.4090   35.0940   15.5910 O      23024 WAT       0.0750
  23025 WAT        23.4090   35.0940   15.8410 O      23025 WAT       0.1045
  23026 WAT        23.4090   35.0940   16.0910 O      23026 WAT       0.1125
  23027 WAT        23.4090   35.0940   16.3410 O      23027 WAT       0.0920
  23028 WAT        23.4090   35.0940   16.5910 O      23028 WAT       0.0569
  23029 WAT        23.4090   35.0940   18.5910 O      23029 WAT       0.0479
  23030 WAT        23.4090   35.0940   18.8410 O      23030 WAT       0.0648
  23031 WAT        23.4090   35.0940   19.0910 O      23031 WAT       0.0749
  23032 WAT        23.4090   35.0940   19.3410 O      23032 WAT       0.0763
  23033 WAT        23.4090   35.0940   19.5910 O      23033 WAT       0.0698
  23034 WAT        23.4090   35.0940   19.8410 O      23034 WAT       0.0567
  23035 WAT        23.4090   35.0940   24.0910 O      23035 WAT       0.0556
  23036 WAT        23.4090   35.0940   24.3410 O      23036 WAT       0.0914
  23037 WAT        23.4090   35.0940   24.5910 O      23037 WAT       0.1369
  23038 WAT        23.4090   35.0940   24.8410 O      23038 WAT       0.1790
  23039 WAT        23.4090   35.0940   25.0910 O      23039 WAT       0.2017
  23040 WAT        23.4090   35.0940   25.3410 O      23040 WAT       0.1964
  23041 WAT        23.4090   35.0940   25.5910 O      23041 WAT       0.1677
  23042 WAT        23.4090   35.0940   25.8410 O      23042 WAT       0.1296
  23043 WAT        23.4090   35.0940   26.0910 O      23043 WAT       0.0943
  23044 WAT        23.4090   35.0940   26.3410 O      23044 WAT       0.0675
  23045 WAT        23.4090   35.0940   26.5910 O      23045 WAT       0.0502
  23046 WAT        23.4090   35.0940   27.5910 O      23046 WAT       0.0464
  23047 WAT        23.4090   35.0940   27.8410 O      23047 WAT       0.0470
  23048 WAT        23.4090   35.3440   12.5910 O      23048 WAT       0.0456
  23049 WAT        23.4090   35.3440   15.5910 O      23049 WAT       0.0492
  23050 WAT        23.4090   35.3440   15.8410 O      23050 WAT       0.0627
  23051 WAT        23.4090   35.3440   16.0910 O      23051 WAT       0.0621
  23052 WAT        23.4090   35.3440   16.3410 O      23052 WAT       0.0475
  23053 WAT        23.4090   35.3440   18.8410 O      23053 WAT       0.0491
  23054 WAT        23.4090   35.3440   19.0910 O      23054 WAT       0.0549
  23055 WAT        23.4090   35.3440   19.3410 O      23055 WAT       0.0542
  23056 WAT        23.4090   35.3440   19.5910 O      23056 WAT       0.0484
  23057 WAT        23.4090   35.3440   24.0910 O      23057 WAT       0.0482
  23058 WAT        23.4090   35.3440   24.3410 O      23058 WAT       0.0779
  23059 WAT        23.4090   35.3440   24.5910 O      23059 WAT       0.1139
  23060 WAT        23.4090   35.3440   24.8410 O      23060 WAT       0.1451
  23061 WAT        23.4090   35.3440   25.0910 O      23061 WAT       0.1585
  23062 WAT        23.4090   35.3440   25.3410 O      23062 WAT       0.1487
  23063 WAT        23.4090   35.3440   25.5910 O      23063 WAT       0.1215
  23064 WAT        23.4090   35.3440   25.8410 O      23064 WAT       0.0888
  23065 WAT        23.4090   35.3440   26.0910 O      23065 WAT       0.0608
  23066 WAT        23.6590    8.3440   21.5910 O      23066 WAT       0.0532
  23067 WAT        23.6590    8.3440   21.8410 O      23067 WAT       0.0542
  23068 WAT        23.6590    8.3440   22.0910 O      23068 WAT       0.0468
  23069 WAT        23.6590    8.3440   24.0910 O      23069 WAT       0.0507
  23070 WAT        23.6590    8.3440   24.3410 O      23070 WAT       0.0555
  23071 WAT        23.6590    8.3440   24.5910 O      23071 WAT       0.0559
  23072 WAT        23.6590    8.3440   24.8410 O      23072 WAT       0.0529
  23073 WAT        23.6590    8.3440   25.0910 O      23073 WAT       0.0484
  23074 WAT        23.6590    8.5940   21.5910 O      23074 WAT       0.0484
  23075 WAT        23.6590    8.5940   21.8410 O      23075 WAT       0.0471
  23076 WAT        23.6590    8.5940   24.0910 O      23076 WAT       0.0507
  23077 WAT        23.6590    8.5940   24.3410 O      23077 WAT       0.0577
  23078 WAT        23.6590    8.5940   24.5910 O      23078 WAT       0.0601
  23079 WAT        23.6590    8.5940   24.8410 O      23079 WAT       0.0589
  23080 WAT        23.6590    8.5940   25.0910 O      23080 WAT       0.0562
  23081 WAT        23.6590    8.5940   25.3410 O      23081 WAT       0.0526
  23082 WAT        23.6590    8.5940   25.5910 O      23082 WAT       0.0465
  23083 WAT        23.6590    8.8440   24.3410 O      23083 WAT       0.0493
  23084 WAT        23.6590    8.8440   24.5910 O      23084 WAT       0.0538
  23085 WAT        23.6590    8.8440   24.8410 O      23085 WAT       0.0556
  23086 WAT        23.6590    8.8440   25.0910 O      23086 WAT       0.0558
  23087 WAT        23.6590    8.8440   25.3410 O      23087 WAT       0.0536
  23088 WAT        23.6590    8.8440   25.5910 O      23088 WAT       0.0468
  23089 WAT        23.6590    9.0940   25.0910 O      23089 WAT       0.0465
  23090 WAT        23.6590    9.0940   25.3410 O      23090 WAT       0.0460
  23091 WAT        23.6590    9.3440   17.8410 O      23091 WAT       0.0454
  23092 WAT        23.6590    9.3440   18.0910 O      23092 WAT       0.0480
  23093 WAT        23.6590    9.3440   18.3410 O      23093 WAT       0.0461
  23094 WAT        23.6590    9.5940   17.8410 O      23094 WAT       0.0551
  23095 WAT        23.6590    9.5940   18.0910 O      23095 WAT       0.0623
  23096 WAT        23.6590    9.5940   18.3410 O      23096 WAT       0.0639
  23097 WAT        23.6590    9.5940   18.5910 O      23097 WAT       0.0593
  23098 WAT        23.6590    9.5940   18.8410 O      23098 WAT       0.0508
  23099 WAT        23.6590    9.8440   17.5910 O      23099 WAT       0.0459
  23100 WAT        23.6590    9.8440   17.8410 O      23100 WAT       0.0595
  23101 WAT        23.6590    9.8440   18.0910 O      23101 WAT       0.0715
  23102 WAT        23.6590    9.8440   18.3410 O      23102 WAT       0.0780
  23103 WAT        23.6590    9.8440   18.5910 O      23103 WAT       0.0775
  23104 WAT        23.6590    9.8440   18.8410 O      23104 WAT       0.0715
  23105 WAT        23.6590    9.8440   19.0910 O      23105 WAT       0.0634
  23106 WAT        23.6590    9.8440   19.3410 O      23106 WAT       0.0555
  23107 WAT        23.6590    9.8440   19.5910 O      23107 WAT       0.0482
  23108 WAT        23.6590   10.0940   17.8410 O      23108 WAT       0.0558
  23109 WAT        23.6590   10.0940   18.0910 O      23109 WAT       0.0698
  23110 WAT        23.6590   10.0940   18.3410 O      23110 WAT       0.0810
  23111 WAT        23.6590   10.0940   18.5910 O      23111 WAT       0.0867
  23112 WAT        23.6590   10.0940   18.8410 O      23112 WAT       0.0872
  23113 WAT        23.6590   10.0940   19.0910 O      23113 WAT       0.0844
  23114 WAT        23.6590   10.0940   19.3410 O      23114 WAT       0.0801
  23115 WAT        23.6590   10.0940   19.5910 O      23115 WAT       0.0747
  23116 WAT        23.6590   10.0940   19.8410 O      23116 WAT       0.0662
  23117 WAT        23.6590   10.0940   20.0910 O      23117 WAT       0.0536
  23118 WAT        23.6590   10.3440   17.8410 O      23118 WAT       0.0451
  23119 WAT        23.6590   10.3440   18.0910 O      23119 WAT       0.0577
  23120 WAT        23.6590   10.3440   18.3410 O      23120 WAT       0.0708
  23121 WAT        23.6590   10.3440   18.5910 O      23121 WAT       0.0821
  23122 WAT        23.6590   10.3440   18.8410 O      23122 WAT       0.0903
  23123 WAT        23.6590   10.3440   19.0910 O      23123 WAT       0.0958
  23124 WAT        23.6590   10.3440   19.3410 O      23124 WAT       0.0994
  23125 WAT        23.6590   10.3440   19.5910 O      23125 WAT       0.0995
  23126 WAT        23.6590   10.3440   19.8410 O      23126 WAT       0.0918
  23127 WAT        23.6590   10.3440   20.0910 O      23127 WAT       0.0739
  23128 WAT        23.6590   10.3440   20.3410 O      23128 WAT       0.0491
  23129 WAT        23.6590   10.5940   18.3410 O      23129 WAT       0.0523
  23130 WAT        23.6590   10.5940   18.5910 O      23130 WAT       0.0652
  23131 WAT        23.6590   10.5940   18.8410 O      23131 WAT       0.0783
  23132 WAT        23.6590   10.5940   19.0910 O      23132 WAT       0.0913
  23133 WAT        23.6590   10.5940   19.3410 O      23133 WAT       0.1037
  23134 WAT        23.6590   10.5940   19.5910 O      23134 WAT       0.1114
  23135 WAT        23.6590   10.5940   19.8410 O      23135 WAT       0.1071
  23136 WAT        23.6590   10.5940   20.0910 O      23136 WAT       0.0863
  23137 WAT        23.6590   10.5940   20.3410 O      23137 WAT       0.0552
  23138 WAT        23.6590   10.8440   18.8410 O      23138 WAT       0.0565
  23139 WAT        23.6590   10.8440   19.0910 O      23139 WAT       0.0721
  23140 WAT        23.6590   10.8440   19.3410 O      23140 WAT       0.0892
  23141 WAT        23.6590   10.8440   19.5910 O      23141 WAT       0.1027
  23142 WAT        23.6590   10.8440   19.8410 O      23142 WAT       0.1029
  23143 WAT        23.6590   10.8440   20.0910 O      23143 WAT       0.0837
  23144 WAT        23.6590   10.8440   20.3410 O      23144 WAT       0.0524
  23145 WAT        23.6590   11.0940   19.0910 O      23145 WAT       0.0470
  23146 WAT        23.6590   11.0940   19.3410 O      23146 WAT       0.0631
  23147 WAT        23.6590   11.0940   19.5910 O      23147 WAT       0.0774
  23148 WAT        23.6590   11.0940   19.8410 O      23148 WAT       0.0806
  23149 WAT        23.6590   11.0940   20.0910 O      23149 WAT       0.0664
  23150 WAT        23.6590   11.3440   19.5910 O      23150 WAT       0.0484
  23151 WAT        23.6590   11.3440   19.8410 O      23151 WAT       0.0521
  23152 WAT        23.6590   11.3440   27.0910 O      23152 WAT       0.0569
  23153 WAT        23.6590   11.3440   27.3410 O      23153 WAT       0.0506
  23154 WAT        23.6590   11.5940   26.8410 O      23154 WAT       0.0532
  23155 WAT        23.6590   11.5940   27.0910 O      23155 WAT       0.0758
  23156 WAT        23.6590   11.5940   27.3410 O      23156 WAT       0.0725
  23157 WAT        23.6590   11.5940   27.5910 O      23157 WAT       0.0460
  23158 WAT        23.6590   11.8440   26.8410 O      23158 WAT       0.0519
  23159 WAT        23.6590   11.8440   27.0910 O      23159 WAT       0.0806
  23160 WAT        23.6590   11.8440   27.3410 O      23160 WAT       0.0825
  23161 WAT        23.6590   11.8440   27.5910 O      23161 WAT       0.0551
  23162 WAT        23.6590   12.0940   16.5910 O      23162 WAT       0.0464
  23163 WAT        23.6590   12.0940   16.8410 O      23163 WAT       0.0475
  23164 WAT        23.6590   12.0940   27.0910 O      23164 WAT       0.0657
  23165 WAT        23.6590   12.0940   27.3410 O      23165 WAT       0.0719
  23166 WAT        23.6590   12.0940   27.5910 O      23166 WAT       0.0508
  23167 WAT        23.6590   12.3440   13.0910 O      23167 WAT       0.0481
  23168 WAT        23.6590   12.3440   13.3410 O      23168 WAT       0.0543
  23169 WAT        23.6590   12.3440   13.5910 O      23169 WAT       0.0564
  23170 WAT        23.6590   12.3440   13.8410 O      23170 WAT       0.0532
  23171 WAT        23.6590   12.3440   14.0910 O      23171 WAT       0.0465
  23172 WAT        23.6590   12.3440   16.8410 O      23172 WAT       0.0464
  23173 WAT        23.6590   12.3440   27.3410 O      23173 WAT       0.0475
  23174 WAT        23.6590   12.5940   12.3410 O      23174 WAT       0.0481
  23175 WAT        23.6590   12.5940   12.5910 O      23175 WAT       0.0561
  23176 WAT        23.6590   12.5940   12.8410 O      23176 WAT       0.0638
  23177 WAT        23.6590   12.5940   13.0910 O      23177 WAT       0.0698
  23178 WAT        23.6590   12.5940   13.3410 O      23178 WAT       0.0715
  23179 WAT        23.6590   12.5940   13.5910 O      23179 WAT       0.0670
  23180 WAT        23.6590   12.5940   13.8410 O      23180 WAT       0.0567
  23181 WAT        23.6590   12.8440   11.8410 O      23181 WAT       0.0463
  23182 WAT        23.6590   12.8440   12.0910 O      23182 WAT       0.0532
  23183 WAT        23.6590   12.8440   12.3410 O      23183 WAT       0.0622
  23184 WAT        23.6590   12.8440   12.5910 O      23184 WAT       0.0709
  23185 WAT        23.6590   12.8440   12.8410 O      23185 WAT       0.0763
  23186 WAT        23.6590   12.8440   13.0910 O      23186 WAT       0.0761
  23187 WAT        23.6590   12.8440   13.3410 O      23187 WAT       0.0693
  23188 WAT        23.6590   12.8440   13.5910 O      23188 WAT       0.0569
  23189 WAT        23.6590   13.0940   11.8410 O      23189 WAT       0.0459
  23190 WAT        23.6590   13.0940   12.0910 O      23190 WAT       0.0515
  23191 WAT        23.6590   13.0940   12.3410 O      23191 WAT       0.0592
  23192 WAT        23.6590   13.0940   12.5910 O      23192 WAT       0.0658
  23193 WAT        23.6590   13.0940   12.8410 O      23193 WAT       0.0671
  23194 WAT        23.6590   13.0940   13.0910 O      23194 WAT       0.0607
  23195 WAT        23.6590   13.0940   13.3410 O      23195 WAT       0.0482
  23196 WAT        23.6590   13.3440   12.5910 O      23196 WAT       0.0451
  23197 WAT        23.6590   13.5940   28.0910 O      23197 WAT       0.0473
  23198 WAT        23.6590   13.8440   27.5910 O      23198 WAT       0.0461
  23199 WAT        23.6590   13.8440   27.8410 O      23199 WAT       0.0884
  23200 WAT        23.6590   13.8440   28.0910 O      23200 WAT       0.1056
  23201 WAT        23.6590   13.8440   28.3410 O      23201 WAT       0.0794
  23202 WAT        23.6590   14.0940   27.5910 O      23202 WAT       0.0793
  23203 WAT        23.6590   14.0940   27.8410 O      23203 WAT       0.1531
  23204 WAT        23.6590   14.0940   28.0910 O      23204 WAT       0.1853
  23205 WAT        23.6590   14.0940   28.3410 O      23205 WAT       0.1423
  23206 WAT        23.6590   14.0940   28.5910 O      23206 WAT       0.0702
  23207 WAT        23.6590   14.3440   27.5910 O      23207 WAT       0.1065
  23208 WAT        23.6590   14.3440   27.8410 O      23208 WAT       0.2051
  23209 WAT        23.6590   14.3440   28.0910 O      23209 WAT       0.2491
  23210 WAT        23.6590   14.3440   28.3410 O      23210 WAT       0.1930
  23211 WAT        23.6590   14.3440   28.5910 O      23211 WAT       0.0972
  23212 WAT        23.6590   14.5940   27.5910 O      23212 WAT       0.1093
  23213 WAT        23.6590   14.5940   27.8410 O      23213 WAT       0.2084
  23214 WAT        23.6590   14.5940   28.0910 O      23214 WAT       0.2520
  23215 WAT        23.6590   14.5940   28.3410 O      23215 WAT       0.1959
  23216 WAT        23.6590   14.5940   28.5910 O      23216 WAT       0.0999
  23217 WAT        23.6590   14.8440   27.5910 O      23217 WAT       0.0848
  23218 WAT        23.6590   14.8440   27.8410 O      23218 WAT       0.1585
  23219 WAT        23.6590   14.8440   28.0910 O      23219 WAT       0.1896
  23220 WAT        23.6590   14.8440   28.3410 O      23220 WAT       0.1470
  23221 WAT        23.6590   14.8440   28.5910 O      23221 WAT       0.0754
  23222 WAT        23.6590   15.0940   27.5910 O      23222 WAT       0.0495
  23223 WAT        23.6590   15.0940   27.8410 O      23223 WAT       0.0895
  23224 WAT        23.6590   15.0940   28.0910 O      23224 WAT       0.1049
  23225 WAT        23.6590   15.0940   28.3410 O      23225 WAT       0.0806
  23226 WAT        23.6590   15.8440    7.8410 O      23226 WAT       0.0452
  23227 WAT        23.6590   15.8440    8.0910 O      23227 WAT       0.0456
  23228 WAT        23.6590   17.0940    5.8410 O      23228 WAT       0.0494
  23229 WAT        23.6590   17.0940    6.0910 O      23229 WAT       0.0514
  23230 WAT        23.6590   17.0940    6.3410 O      23230 WAT       0.0497
  23231 WAT        23.6590   17.3440    3.0910 O      23231 WAT       0.0485
  23232 WAT        23.6590   17.3440    3.3410 O      23232 WAT       0.0499
  23233 WAT        23.6590   17.3440    3.5910 O      23233 WAT       0.0474
  23234 WAT        23.6590   17.3440    5.3410 O      23234 WAT       0.0554
  23235 WAT        23.6590   17.3440    5.5910 O      23235 WAT       0.0679
  23236 WAT        23.6590   17.3440    5.8410 O      23236 WAT       0.0772
  23237 WAT        23.6590   17.3440    6.0910 O      23237 WAT       0.0796
  23238 WAT        23.6590   17.3440    6.3410 O      23238 WAT       0.0738
  23239 WAT        23.6590   17.3440    6.5910 O      23239 WAT       0.0611
  23240 WAT        23.6590   17.5940    2.8410 O      23240 WAT       0.0472
  23241 WAT        23.6590   17.5940    3.0910 O      23241 WAT       0.0506
  23242 WAT        23.6590   17.5940    3.3410 O      23242 WAT       0.0497
  23243 WAT        23.6590   17.5940    3.5910 O      23243 WAT       0.0451
  23244 WAT        23.6590   17.5940    5.0910 O      23244 WAT       0.0540
  23245 WAT        23.6590   17.5940    5.3410 O      23245 WAT       0.0715
  23246 WAT        23.6590   17.5940    5.5910 O      23246 WAT       0.0897
  23247 WAT        23.6590   17.5940    5.8410 O      23247 WAT       0.1033
  23248 WAT        23.6590   17.5940    6.0910 O      23248 WAT       0.1060
  23249 WAT        23.6590   17.5940    6.3410 O      23249 WAT       0.0951
  23250 WAT        23.6590   17.5940    6.5910 O      23250 WAT       0.0734
  23251 WAT        23.6590   17.5940    6.8410 O      23251 WAT       0.0482
  23252 WAT        23.6590   17.8440    5.0910 O      23252 WAT       0.0537
  23253 WAT        23.6590   17.8440    5.3410 O      23253 WAT       0.0740
  23254 WAT        23.6590   17.8440    5.5910 O      23254 WAT       0.0958
  23255 WAT        23.6590   17.8440    5.8410 O      23255 WAT       0.1122
  23256 WAT        23.6590   17.8440    6.0910 O      23256 WAT       0.1154
  23257 WAT        23.6590   17.8440    6.3410 O      23257 WAT       0.1013
  23258 WAT        23.6590   17.8440    6.5910 O      23258 WAT       0.0741
  23259 WAT        23.6590   18.0940    5.3410 O      23259 WAT       0.0585
  23260 WAT        23.6590   18.0940    5.5910 O      23260 WAT       0.0787
  23261 WAT        23.6590   18.0940    5.8410 O      23261 WAT       0.0948
  23262 WAT        23.6590   18.0940    6.0910 O      23262 WAT       0.0986
  23263 WAT        23.6590   18.0940    6.3410 O      23263 WAT       0.0857
  23264 WAT        23.6590   18.0940    6.5910 O      23264 WAT       0.0602
  23265 WAT        23.6590   18.3440    5.5910 O      23265 WAT       0.0484
  23266 WAT        23.6590   18.3440    5.8410 O      23266 WAT       0.0605
  23267 WAT        23.6590   18.3440    6.0910 O      23267 WAT       0.0643
  23268 WAT        23.6590   18.3440    6.3410 O      23268 WAT       0.0558
  23269 WAT        23.6590   22.5940   29.3410 O      23269 WAT       0.0515
  23270 WAT        23.6590   22.8440   28.8410 O      23270 WAT       0.0459
  23271 WAT        23.6590   22.8440   29.0910 O      23271 WAT       0.0825
  23272 WAT        23.6590   22.8440   29.3410 O      23272 WAT       0.0981
  23273 WAT        23.6590   22.8440   29.5910 O      23273 WAT       0.0755
  23274 WAT        23.6590   23.0940   28.8410 O      23274 WAT       0.0612
  23275 WAT        23.6590   23.0940   29.0910 O      23275 WAT       0.1058
  23276 WAT        23.6590   23.0940   29.3410 O      23276 WAT       0.1222
  23277 WAT        23.6590   23.0940   29.5910 O      23277 WAT       0.0920
  23278 WAT        23.6590   23.3440   19.5910 O      23278 WAT       0.0484
  23279 WAT        23.6590   23.3440   19.8410 O      23279 WAT       0.0651
  23280 WAT        23.6590   23.3440   20.0910 O      23280 WAT       0.0584
  23281 WAT        23.6590   23.3440   28.8410 O      23281 WAT       0.0529
  23282 WAT        23.6590   23.3440   29.0910 O      23282 WAT       0.0885
  23283 WAT        23.6590   23.3440   29.3410 O      23283 WAT       0.0994
  23284 WAT        23.6590   23.3440   29.5910 O      23284 WAT       0.0731
  23285 WAT        23.6590   23.5940   19.5910 O      23285 WAT       0.0737
  23286 WAT        23.6590   23.5940   19.8410 O      23286 WAT       0.1010
  23287 WAT        23.6590   23.5940   20.0910 O      23287 WAT       0.0938
  23288 WAT        23.6590   23.5940   20.3410 O      23288 WAT       0.0620
  23289 WAT        23.6590   23.5940   29.0910 O      23289 WAT       0.0480
  23290 WAT        23.6590   23.5940   29.3410 O      23290 WAT       0.0525
  23291 WAT        23.6590   23.8440   19.5910 O      23291 WAT       0.0863
  23292 WAT        23.6590   23.8440   19.8410 O      23292 WAT       0.1187
  23293 WAT        23.6590   23.8440   20.0910 O      23293 WAT       0.1126
  23294 WAT        23.6590   23.8440   20.3410 O      23294 WAT       0.0788
  23295 WAT        23.6590   23.8440   20.5910 O      23295 WAT       0.0461
  23296 WAT        23.6590   24.0940   19.5910 O      23296 WAT       0.0803
  23297 WAT        23.6590   24.0940   19.8410 O      23297 WAT       0.1090
  23298 WAT        23.6590   24.0940   20.0910 O      23298 WAT       0.1045
  23299 WAT        23.6590   24.0940   20.3410 O      23299 WAT       0.0770
  23300 WAT        23.6590   24.0940   20.5910 O      23300 WAT       0.0504
  23301 WAT        23.6590   24.3440   19.5910 O      23301 WAT       0.0628
  23302 WAT        23.6590   24.3440   19.8410 O      23302 WAT       0.0824
  23303 WAT        23.6590   24.3440   20.0910 O      23303 WAT       0.0792
  23304 WAT        23.6590   24.3440   20.3410 O      23304 WAT       0.0614
  23305 WAT        23.6590   24.3440   21.8410 O      23305 WAT       0.0474
  23306 WAT        23.6590   24.3440   22.0910 O      23306 WAT       0.0480
  23307 WAT        23.6590   24.5940   19.8410 O      23307 WAT       0.0557
  23308 WAT        23.6590   24.5940   20.0910 O      23308 WAT       0.0534
  23309 WAT        23.6590   24.5940   21.8410 O      23309 WAT       0.0528
  23310 WAT        23.6590   24.5940   22.0910 O      23310 WAT       0.0563
  23311 WAT        23.6590   24.5940   22.3410 O      23311 WAT       0.0493
  23312 WAT        23.6590   24.8440   21.8410 O      23312 WAT       0.0459
  23313 WAT        23.6590   24.8440   22.0910 O      23313 WAT       0.0512
  23314 WAT        23.6590   24.8440   22.3410 O      23314 WAT       0.0480
  23315 WAT        23.6590   25.0940    2.5910 O      23315 WAT       0.0623
  23316 WAT        23.6590   25.3440    2.5910 O      23316 WAT       0.0726
  23317 WAT        23.6590   25.3440   22.5910 O      23317 WAT       0.0457
  23318 WAT        23.6590   25.3440   22.8410 O      23318 WAT       0.0464
  23319 WAT        23.6590   25.5940    2.5910 O      23319 WAT       0.0556
  23320 WAT        23.6590   25.5940   18.3410 O      23320 WAT       0.0451
  23321 WAT        23.6590   25.5940   18.5910 O      23321 WAT       0.0603
  23322 WAT        23.6590   25.5940   18.8410 O      23322 WAT       0.0641
  23323 WAT        23.6590   25.5940   19.0910 O      23323 WAT       0.0536
  23324 WAT        23.6590   25.5940   22.5910 O      23324 WAT       0.0506
  23325 WAT        23.6590   25.5940   22.8410 O      23325 WAT       0.0542
  23326 WAT        23.6590   25.5940   23.0910 O      23326 WAT       0.0494
  23327 WAT        23.6590   25.8440   17.8410 O      23327 WAT       0.0536
  23328 WAT        23.6590   25.8440   18.0910 O      23328 WAT       0.0773
  23329 WAT        23.6590   25.8440   18.3410 O      23329 WAT       0.0986
  23330 WAT        23.6590   25.8440   18.5910 O      23330 WAT       0.1072
  23331 WAT        23.6590   25.8440   18.8410 O      23331 WAT       0.0943
  23332 WAT        23.6590   25.8440   19.0910 O      23332 WAT       0.0653
  23333 WAT        23.6590   25.8440   22.8410 O      23333 WAT       0.0461
  23334 WAT        23.6590   26.0940   17.3410 O      23334 WAT       0.0475
  23335 WAT        23.6590   26.0940   17.5910 O      23335 WAT       0.0834
  23336 WAT        23.6590   26.0940   17.8410 O      23336 WAT       0.1191
  23337 WAT        23.6590   26.0940   18.0910 O      23337 WAT       0.1442
  23338 WAT        23.6590   26.0940   18.3410 O      23338 WAT       0.1524
  23339 WAT        23.6590   26.0940   18.5910 O      23339 WAT       0.1381
  23340 WAT        23.6590   26.0940   18.8410 O      23340 WAT       0.1027
  23341 WAT        23.6590   26.0940   19.0910 O      23341 WAT       0.0606
  23342 WAT        23.6590   26.0940   28.8410 O      23342 WAT       0.0509
  23343 WAT        23.6590   26.0940   29.0910 O      23343 WAT       0.0543
  23344 WAT        23.6590   26.3440   17.3410 O      23344 WAT       0.0849
  23345 WAT        23.6590   26.3440   17.5910 O      23345 WAT       0.1368
  23346 WAT        23.6590   26.3440   17.8410 O      23346 WAT       0.1752
  23347 WAT        23.6590   26.3440   18.0910 O      23347 WAT       0.1846
  23348 WAT        23.6590   26.3440   18.3410 O      23348 WAT       0.1659
  23349 WAT        23.6590   26.3440   18.5910 O      23349 WAT       0.1277
  23350 WAT        23.6590   26.3440   18.8410 O      23350 WAT       0.0818
  23351 WAT        23.6590   26.3440   28.5910 O      23351 WAT       0.0783
  23352 WAT        23.6590   26.3440   28.8410 O      23352 WAT       0.1136
  23353 WAT        23.6590   26.3440   29.0910 O      23353 WAT       0.1173
  23354 WAT        23.6590   26.3440   29.3410 O      23354 WAT       0.0861
  23355 WAT        23.6590   26.5940   17.0910 O      23355 WAT       0.0501
  23356 WAT        23.6590   26.5940   17.3410 O      23356 WAT       0.0972
  23357 WAT        23.6590   26.5940   17.5910 O      23357 WAT       0.1466
  23358 WAT        23.6590   26.5940   17.8410 O      23358 WAT       0.1725
  23359 WAT        23.6590   26.5940   18.0910 O      23359 WAT       0.1627
  23360 WAT        23.6590   26.5940   18.3410 O      23360 WAT       0.1277
  23361 WAT        23.6590   26.5940   18.5910 O      23361 WAT       0.0853
  23362 WAT        23.6590   26.5940   18.8410 O      23362 WAT       0.0482
  23363 WAT        23.6590   26.5940   28.3410 O      23363 WAT       0.0682
  23364 WAT        23.6590   26.5940   28.5910 O      23364 WAT       0.1374
  23365 WAT        23.6590   26.5940   28.8410 O      23365 WAT       0.1967
  23366 WAT        23.6590   26.5940   29.0910 O      23366 WAT       0.1992
  23367 WAT        23.6590   26.5940   29.3410 O      23367 WAT       0.1431
  23368 WAT        23.6590   26.5940   29.5910 O      23368 WAT       0.0723
  23369 WAT        23.6590   26.8440   17.3410 O      23369 WAT       0.0727
  23370 WAT        23.6590   26.8440   17.5910 O      23370 WAT       0.1041
  23371 WAT        23.6590   26.8440   17.8410 O      23371 WAT       0.1148
  23372 WAT        23.6590   26.8440   18.0910 O      23372 WAT       0.0996
  23373 WAT        23.6590   26.8440   18.3410 O      23373 WAT       0.0706
  23374 WAT        23.6590   26.8440   28.3410 O      23374 WAT       0.0909
  23375 WAT        23.6590   26.8440   28.5910 O      23375 WAT       0.1844
  23376 WAT        23.6590   26.8440   28.8410 O      23376 WAT       0.2644
  23377 WAT        23.6590   26.8440   29.0910 O      23377 WAT       0.2672
  23378 WAT        23.6590   26.8440   29.3410 O      23378 WAT       0.1909
  23379 WAT        23.6590   26.8440   29.5910 O      23379 WAT       0.0959
  23380 WAT        23.6590   27.0940   17.5910 O      23380 WAT       0.0501
  23381 WAT        23.6590   27.0940   17.8410 O      23381 WAT       0.0530
  23382 WAT        23.6590   27.0940   28.3410 O      23382 WAT       0.0914
  23383 WAT        23.6590   27.0940   28.5910 O      23383 WAT       0.1888
  23384 WAT        23.6590   27.0940   28.8410 O      23384 WAT       0.2750
  23385 WAT        23.6590   27.0940   29.0910 O      23385 WAT       0.2822
  23386 WAT        23.6590   27.0940   29.3410 O      23386 WAT       0.2043
  23387 WAT        23.6590   27.0940   29.5910 O      23387 WAT       0.1036
  23388 WAT        23.6590   27.3440   28.3410 O      23388 WAT       0.0690
  23389 WAT        23.6590   27.3440   28.5910 O      23389 WAT       0.1467
  23390 WAT        23.6590   27.3440   28.8410 O      23390 WAT       0.2201
  23391 WAT        23.6590   27.3440   29.0910 O      23391 WAT       0.2329
  23392 WAT        23.6590   27.3440   29.3410 O      23392 WAT       0.1737
  23393 WAT        23.6590   27.3440   29.5910 O      23393 WAT       0.0902
  23394 WAT        23.6590   27.5940   26.5910 O      23394 WAT       0.0511
  23395 WAT        23.6590   27.5940   26.8410 O      23395 WAT       0.0503
  23396 WAT        23.6590   27.5940   28.5910 O      23396 WAT       0.0861
  23397 WAT        23.6590   27.5940   28.8410 O      23397 WAT       0.1348
  23398 WAT        23.6590   27.5940   29.0910 O      23398 WAT       0.1491
  23399 WAT        23.6590   27.5940   29.3410 O      23399 WAT       0.1159
  23400 WAT        23.6590   27.5940   29.5910 O      23400 WAT       0.0624
  23401 WAT        23.6590   27.8440   26.3410 O      23401 WAT       0.0730
  23402 WAT        23.6590   27.8440   26.5910 O      23402 WAT       0.1146
  23403 WAT        23.6590   27.8440   26.8410 O      23403 WAT       0.1131
  23404 WAT        23.6590   27.8440   27.0910 O      23404 WAT       0.0712
  23405 WAT        23.6590   27.8440   28.8410 O      23405 WAT       0.0630
  23406 WAT        23.6590   27.8440   29.0910 O      23406 WAT       0.0736
  23407 WAT        23.6590   27.8440   29.3410 O      23407 WAT       0.0602
  23408 WAT        23.6590   28.0940   15.5910 O      23408 WAT       0.0620
  23409 WAT        23.6590   28.0940   15.8410 O      23409 WAT       0.0742
  23410 WAT        23.6590   28.0940   16.0910 O      23410 WAT       0.0728
  23411 WAT        23.6590   28.0940   16.3410 O      23411 WAT       0.0581
  23412 WAT        23.6590   28.0940   26.0910 O      23412 WAT       0.0534
  23413 WAT        23.6590   28.0940   26.3410 O      23413 WAT       0.1362
  23414 WAT        23.6590   28.0940   26.5910 O      23414 WAT       0.2132
  23415 WAT        23.6590   28.0940   26.8410 O      23415 WAT       0.2098
  23416 WAT        23.6590   28.0940   27.0910 O      23416 WAT       0.1312
  23417 WAT        23.6590   28.0940   27.3410 O      23417 WAT       0.0524
  23418 WAT        23.6590   28.3440   15.3410 O      23418 WAT       0.0618
  23419 WAT        23.6590   28.3440   15.5910 O      23419 WAT       0.1004
  23420 WAT        23.6590   28.3440   15.8410 O      23420 WAT       0.1348
  23421 WAT        23.6590   28.3440   16.0910 O      23421 WAT       0.1497
  23422 WAT        23.6590   28.3440   16.3410 O      23422 WAT       0.1351
  23423 WAT        23.6590   28.3440   16.5910 O      23423 WAT       0.0964
  23424 WAT        23.6590   28.3440   16.8410 O      23424 WAT       0.0531
  23425 WAT        23.6590   28.3440   26.0910 O      23425 WAT       0.0815
  23426 WAT        23.6590   28.3440   26.3410 O      23426 WAT       0.2057
  23427 WAT        23.6590   28.3440   26.5910 O      23427 WAT       0.3208
  23428 WAT        23.6590   28.3440   26.8410 O      23428 WAT       0.3143
  23429 WAT        23.6590   28.3440   27.0910 O      23429 WAT       0.1949
  23430 WAT        23.6590   28.3440   27.3410 O      23430 WAT       0.0767
  23431 WAT        23.6590   28.5940   15.3410 O      23431 WAT       0.0617
  23432 WAT        23.6590   28.5940   15.5910 O      23432 WAT       0.1125
  23433 WAT        23.6590   28.5940   15.8410 O      23433 WAT       0.1716
  23434 WAT        23.6590   28.5940   16.0910 O      23434 WAT       0.2168
  23435 WAT        23.6590   28.5940   16.3410 O      23435 WAT       0.2200
  23436 WAT        23.6590   28.5940   16.5910 O      23436 WAT       0.1733
  23437 WAT        23.6590   28.5940   16.8410 O      23437 WAT       0.1032
  23438 WAT        23.6590   28.5940   17.0910 O      23438 WAT       0.0468
  23439 WAT        23.6590   28.5940   18.3410 O      23439 WAT       0.0458
  23440 WAT        23.6590   28.5940   26.0910 O      23440 WAT       0.0977
  23441 WAT        23.6590   28.5940   26.3410 O      23441 WAT       0.2455
  23442 WAT        23.6590   28.5940   26.5910 O      23442 WAT       0.3817
  23443 WAT        23.6590   28.5940   26.8410 O      23443 WAT       0.3715
  23444 WAT        23.6590   28.5940   27.0910 O      23444 WAT       0.2278
  23445 WAT        23.6590   28.5940   27.3410 O      23445 WAT       0.0883
  23446 WAT        23.6590   28.8440   15.5910 O      23446 WAT       0.0881
  23447 WAT        23.6590   28.8440   15.8410 O      23447 WAT       0.1542
  23448 WAT        23.6590   28.8440   16.0910 O      23448 WAT       0.2211
  23449 WAT        23.6590   28.8440   16.3410 O      23449 WAT       0.2497
  23450 WAT        23.6590   28.8440   16.5910 O      23450 WAT       0.2140
  23451 WAT        23.6590   28.8440   16.8410 O      23451 WAT       0.1357
  23452 WAT        23.6590   28.8440   17.0910 O      23452 WAT       0.0640
  23453 WAT        23.6590   28.8440   26.0910 O      23453 WAT       0.0902
  23454 WAT        23.6590   28.8440   26.3410 O      23454 WAT       0.2266
  23455 WAT        23.6590   28.8440   26.5910 O      23455 WAT       0.3509
  23456 WAT        23.6590   28.8440   26.8410 O      23456 WAT       0.3390
  23457 WAT        23.6590   28.8440   27.0910 O      23457 WAT       0.2054
  23458 WAT        23.6590   28.8440   27.3410 O      23458 WAT       0.0781
  23459 WAT        23.6590   29.0940   15.5910 O      23459 WAT       0.0481
  23460 WAT        23.6590   29.0940   15.8410 O      23460 WAT       0.0974
  23461 WAT        23.6590   29.0940   16.0910 O      23461 WAT       0.1570
  23462 WAT        23.6590   29.0940   16.3410 O      23462 WAT       0.1941
  23463 WAT        23.6590   29.0940   16.5910 O      23463 WAT       0.1782
  23464 WAT        23.6590   29.0940   16.8410 O      23464 WAT       0.1191
  23465 WAT        23.6590   29.0940   17.0910 O      23465 WAT       0.0582
  23466 WAT        23.6590   29.0940   26.0910 O      23466 WAT       0.0632
  23467 WAT        23.6590   29.0940   26.3410 O      23467 WAT       0.1589
  23468 WAT        23.6590   29.0940   26.5910 O      23468 WAT       0.2447
  23469 WAT        23.6590   29.0940   26.8410 O      23469 WAT       0.2343
  23470 WAT        23.6590   29.0940   27.0910 O      23470 WAT       0.1401
  23471 WAT        23.6590   29.0940   27.3410 O      23471 WAT       0.0519
  23472 WAT        23.6590   29.3440   16.0910 O      23472 WAT       0.0761
  23473 WAT        23.6590   29.3440   16.3410 O      23473 WAT       0.1015
  23474 WAT        23.6590   29.3440   16.5910 O      23474 WAT       0.0984
  23475 WAT        23.6590   29.3440   16.8410 O      23475 WAT       0.0687
  23476 WAT        23.6590   29.3440   26.3410 O      23476 WAT       0.0836
  23477 WAT        23.6590   29.3440   26.5910 O      23477 WAT       0.1278
  23478 WAT        23.6590   29.3440   26.8410 O      23478 WAT       0.1207
  23479 WAT        23.6590   29.3440   27.0910 O      23479 WAT       0.0708
  23480 WAT        23.6590   29.5940   26.5910 O      23480 WAT       0.0495
  23481 WAT        23.6590   29.5940   26.8410 O      23481 WAT       0.0458
  23482 WAT        23.6590   33.3440   26.8410 O      23482 WAT       0.0478
  23483 WAT        23.6590   33.3440   27.0910 O      23483 WAT       0.0591
  23484 WAT        23.6590   33.3440   27.3410 O      23484 WAT       0.0627
  23485 WAT        23.6590   33.3440   27.5910 O      23485 WAT       0.0567
  23486 WAT        23.6590   33.5940   26.8410 O      23486 WAT       0.0547
  23487 WAT        23.6590   33.5940   27.0910 O      23487 WAT       0.0700
  23488 WAT        23.6590   33.5940   27.3410 O      23488 WAT       0.0778
  23489 WAT        23.6590   33.5940   27.5910 O      23489 WAT       0.0745
  23490 WAT        23.6590   33.5940   27.8410 O      23490 WAT       0.0619
  23491 WAT        23.6590   33.5940   28.0910 O      23491 WAT       0.0454
  23492 WAT        23.6590   33.8440   11.8410 O      23492 WAT       0.0653
  23493 WAT        23.6590   33.8440   12.0910 O      23493 WAT       0.0669
  23494 WAT        23.6590   33.8440   12.3410 O      23494 WAT       0.0470
  23495 WAT        23.6590   33.8440   26.8410 O      23495 WAT       0.0575
  23496 WAT        23.6590   33.8440   27.0910 O      23496 WAT       0.0746
  23497 WAT        23.6590   33.8440   27.3410 O      23497 WAT       0.0852
  23498 WAT        23.6590   33.8440   27.5910 O      23498 WAT       0.0852
  23499 WAT        23.6590   33.8440   27.8410 O      23499 WAT       0.0749
  23500 WAT        23.6590   33.8440   28.0910 O      23500 WAT       0.0591
  23501 WAT        23.6590   34.0940   11.5910 O      23501 WAT       0.0551
  23502 WAT        23.6590   34.0940   11.8410 O      23502 WAT       0.0935
  23503 WAT        23.6590   34.0940   12.0910 O      23503 WAT       0.1084
  23504 WAT        23.6590   34.0940   12.3410 O      23504 WAT       0.0872
  23505 WAT        23.6590   34.0940   12.5910 O      23505 WAT       0.0492
  23506 WAT        23.6590   34.0940   16.3410 O      23506 WAT       0.0506
  23507 WAT        23.6590   34.0940   26.8410 O      23507 WAT       0.0570
  23508 WAT        23.6590   34.0940   27.0910 O      23508 WAT       0.0729
  23509 WAT        23.6590   34.0940   27.3410 O      23509 WAT       0.0842
  23510 WAT        23.6590   34.0940   27.5910 O      23510 WAT       0.0868
  23511 WAT        23.6590   34.0940   27.8410 O      23511 WAT       0.0801
  23512 WAT        23.6590   34.0940   28.0910 O      23512 WAT       0.0675
  23513 WAT        23.6590   34.0940   28.3410 O      23513 WAT       0.0530
  23514 WAT        23.6590   34.3440   11.5910 O      23514 WAT       0.0537
  23515 WAT        23.6590   34.3440   11.8410 O      23515 WAT       0.1023
  23516 WAT        23.6590   34.3440   12.0910 O      23516 WAT       0.1340
  23517 WAT        23.6590   34.3440   12.3410 O      23517 WAT       0.1226
  23518 WAT        23.6590   34.3440   12.5910 O      23518 WAT       0.0794
  23519 WAT        23.6590   34.3440   15.8410 O      23519 WAT       0.0495
  23520 WAT        23.6590   34.3440   16.0910 O      23520 WAT       0.0775
  23521 WAT        23.6590   34.3440   16.3410 O      23521 WAT       0.0851
  23522 WAT        23.6590   34.3440   16.5910 O      23522 WAT       0.0650
  23523 WAT        23.6590   34.3440   26.8410 O      23523 WAT       0.0544
  23524 WAT        23.6590   34.3440   27.0910 O      23524 WAT       0.0673
  23525 WAT        23.6590   34.3440   27.3410 O      23525 WAT       0.0775
  23526 WAT        23.6590   34.3440   27.5910 O      23526 WAT       0.0817
  23527 WAT        23.6590   34.3440   27.8410 O      23527 WAT       0.0786
  23528 WAT        23.6590   34.3440   28.0910 O      23528 WAT       0.0699
  23529 WAT        23.6590   34.3440   28.3410 O      23529 WAT       0.0584
  23530 WAT        23.6590   34.3440   28.5910 O      23530 WAT       0.0461
  23531 WAT        23.6590   34.5940   11.8410 O      23531 WAT       0.0834
  23532 WAT        23.6590   34.5940   12.0910 O      23532 WAT       0.1229
  23533 WAT        23.6590   34.5940   12.3410 O      23533 WAT       0.1270
  23534 WAT        23.6590   34.5940   12.5910 O      23534 WAT       0.0933
  23535 WAT        23.6590   34.5940   12.8410 O      23535 WAT       0.0492
  23536 WAT        23.6590   34.5940   15.8410 O      23536 WAT       0.0745
  23537 WAT        23.6590   34.5940   16.0910 O      23537 WAT       0.1050
  23538 WAT        23.6590   34.5940   16.3410 O      23538 WAT       0.1065
  23539 WAT        23.6590   34.5940   16.5910 O      23539 WAT       0.0770
  23540 WAT        23.6590   34.5940   18.8410 O      23540 WAT       0.0457
  23541 WAT        23.6590   34.5940   19.0910 O      23541 WAT       0.0555
  23542 WAT        23.6590   34.5940   19.3410 O      23542 WAT       0.0605
  23543 WAT        23.6590   34.5940   19.5910 O      23543 WAT       0.0599
  23544 WAT        23.6590   34.5940   19.8410 O      23544 WAT       0.0535
  23545 WAT        23.6590   34.5940   24.8410 O      23545 WAT       0.0494
  23546 WAT        23.6590   34.5940   25.0910 O      23546 WAT       0.0601
  23547 WAT        23.6590   34.5940   25.3410 O      23547 WAT       0.0640
  23548 WAT        23.6590   34.5940   25.5910 O      23548 WAT       0.0609
  23549 WAT        23.6590   34.5940   25.8410 O      23549 WAT       0.0539
  23550 WAT        23.6590   34.5940   26.0910 O      23550 WAT       0.0468
  23551 WAT        23.6590   34.5940   26.8410 O      23551 WAT       0.0500
  23552 WAT        23.6590   34.5940   27.0910 O      23552 WAT       0.0593
  23553 WAT        23.6590   34.5940   27.3410 O      23553 WAT       0.0681
  23554 WAT        23.6590   34.5940   27.5910 O      23554 WAT       0.0730
  23555 WAT        23.6590   34.5940   27.8410 O      23555 WAT       0.0724
  23556 WAT        23.6590   34.5940   28.0910 O      23556 WAT       0.0668
  23557 WAT        23.6590   34.5940   28.3410 O      23557 WAT       0.0579
  23558 WAT        23.6590   34.5940   28.5910 O      23558 WAT       0.0474
  23559 WAT        23.6590   34.8440   11.8410 O      23559 WAT       0.0496
  23560 WAT        23.6590   34.8440   12.0910 O      23560 WAT       0.0820
  23561 WAT        23.6590   34.8440   12.3410 O      23561 WAT       0.0952
  23562 WAT        23.6590   34.8440   12.5910 O      23562 WAT       0.0789
  23563 WAT        23.6590   34.8440   12.8410 O      23563 WAT       0.0471
  23564 WAT        23.6590   34.8440   15.5910 O      23564 WAT       0.0498
  23565 WAT        23.6590   34.8440   15.8410 O      23565 WAT       0.0835
  23566 WAT        23.6590   34.8440   16.0910 O      23566 WAT       0.1054
  23567 WAT        23.6590   34.8440   16.3410 O      23567 WAT       0.0983
  23568 WAT        23.6590   34.8440   16.5910 O      23568 WAT       0.0671
  23569 WAT        23.6590   34.8440   18.5910 O      23569 WAT       0.0526
  23570 WAT        23.6590   34.8440   18.8410 O      23570 WAT       0.0691
  23571 WAT        23.6590   34.8440   19.0910 O      23571 WAT       0.0794
  23572 WAT        23.6590   34.8440   19.3410 O      23572 WAT       0.0823
  23573 WAT        23.6590   34.8440   19.5910 O      23573 WAT       0.0785
  23574 WAT        23.6590   34.8440   19.8410 O      23574 WAT       0.0682
  23575 WAT        23.6590   34.8440   20.0910 O      23575 WAT       0.0538
  23576 WAT        23.6590   34.8440   24.5910 O      23576 WAT       0.0641
  23577 WAT        23.6590   34.8440   24.8410 O      23577 WAT       0.0857
  23578 WAT        23.6590   34.8440   25.0910 O      23578 WAT       0.0991
  23579 WAT        23.6590   34.8440   25.3410 O      23579 WAT       0.0991
  23580 WAT        23.6590   34.8440   25.5910 O      23580 WAT       0.0874
  23581 WAT        23.6590   34.8440   25.8410 O      23581 WAT       0.0704
  23582 WAT        23.6590   34.8440   26.0910 O      23582 WAT       0.0547
  23583 WAT        23.6590   34.8440   27.0910 O      23583 WAT       0.0489
  23584 WAT        23.6590   34.8440   27.3410 O      23584 WAT       0.0564
  23585 WAT        23.6590   34.8440   27.5910 O      23585 WAT       0.0615
  23586 WAT        23.6590   34.8440   27.8410 O      23586 WAT       0.0622
  23587 WAT        23.6590   34.8440   28.0910 O      23587 WAT       0.0585
  23588 WAT        23.6590   34.8440   28.3410 O      23588 WAT       0.0514
  23589 WAT        23.6590   35.0940   12.3410 O      23589 WAT       0.0512
  23590 WAT        23.6590   35.0940   12.5910 O      23590 WAT       0.0475
  23591 WAT        23.6590   35.0940   15.5910 O      23591 WAT       0.0464
  23592 WAT        23.6590   35.0940   15.8410 O      23592 WAT       0.0685
  23593 WAT        23.6590   35.0940   16.0910 O      23593 WAT       0.0775
  23594 WAT        23.6590   35.0940   16.3410 O      23594 WAT       0.0663
  23595 WAT        23.6590   35.0940   18.5910 O      23595 WAT       0.0589
  23596 WAT        23.6590   35.0940   18.8410 O      23596 WAT       0.0742
  23597 WAT        23.6590   35.0940   19.0910 O      23597 WAT       0.0816
  23598 WAT        23.6590   35.0940   19.3410 O      23598 WAT       0.0814
  23599 WAT        23.6590   35.0940   19.5910 O      23599 WAT       0.0754
  23600 WAT        23.6590   35.0940   19.8410 O      23600 WAT       0.0640
  23601 WAT        23.6590   35.0940   20.0910 O      23601 WAT       0.0494
  23602 WAT        23.6590   35.0940   24.3410 O      23602 WAT       0.0540
  23603 WAT        23.6590   35.0940   24.5910 O      23603 WAT       0.0797
  23604 WAT        23.6590   35.0940   24.8410 O      23604 WAT       0.1031
  23605 WAT        23.6590   35.0940   25.0910 O      23605 WAT       0.1147
  23606 WAT        23.6590   35.0940   25.3410 O      23606 WAT       0.1095
  23607 WAT        23.6590   35.0940   25.5910 O      23607 WAT       0.0911
  23608 WAT        23.6590   35.0940   25.8410 O      23608 WAT       0.0683
  23609 WAT        23.6590   35.0940   26.0910 O      23609 WAT       0.0491
  23610 WAT        23.6590   35.0940   27.5910 O      23610 WAT       0.0459
  23611 WAT        23.6590   35.0940   27.8410 O      23611 WAT       0.0472
  23612 WAT        23.6590   35.3440   18.8410 O      23612 WAT       0.0542
  23613 WAT        23.6590   35.3440   19.0910 O      23613 WAT       0.0578
  23614 WAT        23.6590   35.3440   19.3410 O      23614 WAT       0.0560
  23615 WAT        23.6590   35.3440   19.5910 O      23615 WAT       0.0506
  23616 WAT        23.6590   35.3440   24.5910 O      23616 WAT       0.0650
  23617 WAT        23.6590   35.3440   24.8410 O      23617 WAT       0.0821
  23618 WAT        23.6590   35.3440   25.0910 O      23618 WAT       0.0889
  23619 WAT        23.6590   35.3440   25.3410 O      23619 WAT       0.0820
  23620 WAT        23.6590   35.3440   25.5910 O      23620 WAT       0.0652
  23621 WAT        23.6590   35.3440   25.8410 O      23621 WAT       0.0464
  23622 WAT        23.9090    8.3440   23.8410 O      23622 WAT       0.0459
  23623 WAT        23.9090    8.3440   24.0910 O      23623 WAT       0.0517
  23624 WAT        23.9090    8.3440   24.3410 O      23624 WAT       0.0536
  23625 WAT        23.9090    8.3440   24.5910 O      23625 WAT       0.0510
  23626 WAT        23.9090    8.3440   24.8410 O      23626 WAT       0.0455
  23627 WAT        23.9090    8.3440   29.0910 O      23627 WAT       0.0503
  23628 WAT        23.9090    8.5940   23.8410 O      23628 WAT       0.0464
  23629 WAT        23.9090    8.5940   24.0910 O      23629 WAT       0.0547
  23630 WAT        23.9090    8.5940   24.3410 O      23630 WAT       0.0589
  23631 WAT        23.9090    8.5940   24.5910 O      23631 WAT       0.0577
  23632 WAT        23.9090    8.5940   24.8410 O      23632 WAT       0.0527
  23633 WAT        23.9090    8.5940   25.0910 O      23633 WAT       0.0467
  23634 WAT        23.9090    8.8440   24.0910 O      23634 WAT       0.0478
  23635 WAT        23.9090    8.8440   24.3410 O      23635 WAT       0.0541
  23636 WAT        23.9090    8.8440   24.5910 O      23636 WAT       0.0553
  23637 WAT        23.9090    8.8440   24.8410 O      23637 WAT       0.0529
  23638 WAT        23.9090    8.8440   25.0910 O      23638 WAT       0.0492
  23639 WAT        23.9090    9.0940   24.8410 O      23639 WAT       0.0454
  23640 WAT        23.9090    9.5940   18.0910 O      23640 WAT       0.0511
  23641 WAT        23.9090    9.5940   18.3410 O      23641 WAT       0.0549
  23642 WAT        23.9090    9.5940   18.5910 O      23642 WAT       0.0543
  23643 WAT        23.9090    9.5940   18.8410 O      23643 WAT       0.0505
  23644 WAT        23.9090    9.5940   19.0910 O      23644 WAT       0.0453
  23645 WAT        23.9090    9.8440   17.8410 O      23645 WAT       0.0470
  23646 WAT        23.9090    9.8440   18.0910 O      23646 WAT       0.0569
  23647 WAT        23.9090    9.8440   18.3410 O      23647 WAT       0.0645
  23648 WAT        23.9090    9.8440   18.5910 O      23648 WAT       0.0674
  23649 WAT        23.9090    9.8440   18.8410 O      23649 WAT       0.0663
  23650 WAT        23.9090    9.8440   19.0910 O      23650 WAT       0.0629
  23651 WAT        23.9090    9.8440   19.3410 O      23651 WAT       0.0585
  23652 WAT        23.9090    9.8440   19.5910 O      23652 WAT       0.0535
  23653 WAT        23.9090    9.8440   19.8410 O      23653 WAT       0.0478
  23654 WAT        23.9090   10.0940   18.0910 O      23654 WAT       0.0552
  23655 WAT        23.9090   10.0940   18.3410 O      23655 WAT       0.0654
  23656 WAT        23.9090   10.0940   18.5910 O      23656 WAT       0.0728
  23657 WAT        23.9090   10.0940   18.8410 O      23657 WAT       0.0766
  23658 WAT        23.9090   10.0940   19.0910 O      23658 WAT       0.0779
  23659 WAT        23.9090   10.0940   19.3410 O      23659 WAT       0.0774
  23660 WAT        23.9090   10.0940   19.5910 O      23660 WAT       0.0750
  23661 WAT        23.9090   10.0940   19.8410 O      23661 WAT       0.0693
  23662 WAT        23.9090   10.0940   20.0910 O      23662 WAT       0.0589
  23663 WAT        23.9090   10.3440   18.0910 O      23663 WAT       0.0469
  23664 WAT        23.9090   10.3440   18.3410 O      23664 WAT       0.0575
  23665 WAT        23.9090   10.3440   18.5910 O      23665 WAT       0.0679
  23666 WAT        23.9090   10.3440   18.8410 O      23666 WAT       0.0769
  23667 WAT        23.9090   10.3440   19.0910 O      23667 WAT       0.0843
  23668 WAT        23.9090   10.3440   19.3410 O      23668 WAT       0.0903
  23669 WAT        23.9090   10.3440   19.5910 O      23669 WAT       0.0933
  23670 WAT        23.9090   10.3440   19.8410 O      23670 WAT       0.0892
  23671 WAT        23.9090   10.3440   20.0910 O      23671 WAT       0.0753
  23672 WAT        23.9090   10.3440   20.3410 O      23672 WAT       0.0532
  23673 WAT        23.9090   10.5940   18.5910 O      23673 WAT       0.0551
  23674 WAT        23.9090   10.5940   18.8410 O      23674 WAT       0.0667
  23675 WAT        23.9090   10.5940   19.0910 O      23675 WAT       0.0791
  23676 WAT        23.9090   10.5940   19.3410 O      23676 WAT       0.0916
  23677 WAT        23.9090   10.5940   19.5910 O      23677 WAT       0.1007
  23678 WAT        23.9090   10.5940   19.8410 O      23678 WAT       0.0998
  23679 WAT        23.9090   10.5940   20.0910 O      23679 WAT       0.0838
  23680 WAT        23.9090   10.5940   20.3410 O      23680 WAT       0.0569
  23681 WAT        23.9090   10.8440   18.8410 O      23681 WAT       0.0501
  23682 WAT        23.9090   10.8440   19.0910 O      23682 WAT       0.0637
  23683 WAT        23.9090   10.8440   19.3410 O      23683 WAT       0.0794
  23684 WAT        23.9090   10.8440   19.5910 O      23684 WAT       0.0927
  23685 WAT        23.9090   10.8440   19.8410 O      23685 WAT       0.0949
  23686 WAT        23.9090   10.8440   20.0910 O      23686 WAT       0.0801
  23687 WAT        23.9090   10.8440   20.3410 O      23687 WAT       0.0530
  23688 WAT        23.9090   11.0940   19.3410 O      23688 WAT       0.0589
  23689 WAT        23.9090   11.0940   19.5910 O      23689 WAT       0.0724
  23690 WAT        23.9090   11.0940   19.8410 O      23690 WAT       0.0765
  23691 WAT        23.9090   11.0940   20.0910 O      23691 WAT       0.0651
  23692 WAT        23.9090   11.0940   26.8410 O      23692 WAT       0.0546
  23693 WAT        23.9090   11.0940   27.0910 O      23693 WAT       0.0612
  23694 WAT        23.9090   11.0940   27.3410 O      23694 WAT       0.0502
  23695 WAT        23.9090   11.3440   19.5910 O      23695 WAT       0.0491
  23696 WAT        23.9090   11.3440   19.8410 O      23696 WAT       0.0533
  23697 WAT        23.9090   11.3440   20.0910 O      23697 WAT       0.0460
  23698 WAT        23.9090   11.3440   26.8410 O      23698 WAT       0.0728
  23699 WAT        23.9090   11.3440   27.0910 O      23699 WAT       0.0942
  23700 WAT        23.9090   11.3440   27.3410 O      23700 WAT       0.0851
  23701 WAT        23.9090   11.3440   27.5910 O      23701 WAT       0.0527
  23702 WAT        23.9090   11.5940   16.8410 O      23702 WAT       0.0454
  23703 WAT        23.9090   11.5940   17.0910 O      23703 WAT       0.0467
  23704 WAT        23.9090   11.5940   26.8410 O      23704 WAT       0.0883
  23705 WAT        23.9090   11.5940   27.0910 O      23705 WAT       0.1265
  23706 WAT        23.9090   11.5940   27.3410 O      23706 WAT       0.1230
  23707 WAT        23.9090   11.5940   27.5910 O      23707 WAT       0.0802
  23708 WAT        23.9090   11.8440   16.5910 O      23708 WAT       0.0527
  23709 WAT        23.9090   11.8440   16.8410 O      23709 WAT       0.0594
  23710 WAT        23.9090   11.8440   17.0910 O      23710 WAT       0.0600
  23711 WAT        23.9090   11.8440   17.3410 O      23711 WAT       0.0545
  23712 WAT        23.9090   11.8440   26.8410 O      23712 WAT       0.0884
  23713 WAT        23.9090   11.8440   27.0910 O      23713 WAT       0.1373
  23714 WAT        23.9090   11.8440   27.3410 O      23714 WAT       0.1422
  23715 WAT        23.9090   11.8440   27.5910 O      23715 WAT       0.0974
  23716 WAT        23.9090   12.0940   16.3410 O      23716 WAT       0.0511
  23717 WAT        23.9090   12.0940   16.5910 O      23717 WAT       0.0629
  23718 WAT        23.9090   12.0940   16.8410 O      23718 WAT       0.0700
  23719 WAT        23.9090   12.0940   17.0910 O      23719 WAT       0.0696
  23720 WAT        23.9090   12.0940   17.3410 O      23720 WAT       0.0619
  23721 WAT        23.9090   12.0940   17.5910 O      23721 WAT       0.0493
  23722 WAT        23.9090   12.0940   26.8410 O      23722 WAT       0.0692
  23723 WAT        23.9090   12.0940   27.0910 O      23723 WAT       0.1157
  23724 WAT        23.9090   12.0940   27.3410 O      23724 WAT       0.1273
  23725 WAT        23.9090   12.0940   27.5910 O      23725 WAT       0.0916
  23726 WAT        23.9090   12.3440   13.8410 O      23726 WAT       0.0450
  23727 WAT        23.9090   12.3440   16.3410 O      23727 WAT       0.0527
  23728 WAT        23.9090   12.3440   16.5910 O      23728 WAT       0.0644
  23729 WAT        23.9090   12.3440   16.8410 O      23729 WAT       0.0715
  23730 WAT        23.9090   12.3440   17.0910 O      23730 WAT       0.0709
  23731 WAT        23.9090   12.3440   17.3410 O      23731 WAT       0.0627
  23732 WAT        23.9090   12.3440   17.5910 O      23732 WAT       0.0494
  23733 WAT        23.9090   12.3440   27.0910 O      23733 WAT       0.0742
  23734 WAT        23.9090   12.3440   27.3410 O      23734 WAT       0.0868
  23735 WAT        23.9090   12.3440   27.5910 O      23735 WAT       0.0660
  23736 WAT        23.9090   12.5940   13.0910 O      23736 WAT       0.0470
  23737 WAT        23.9090   12.5940   13.3410 O      23737 WAT       0.0512
  23738 WAT        23.9090   12.5940   13.5910 O      23738 WAT       0.0516
  23739 WAT        23.9090   12.5940   13.8410 O      23739 WAT       0.0472
  23740 WAT        23.9090   12.5940   16.5910 O      23740 WAT       0.0549
  23741 WAT        23.9090   12.5940   16.8410 O      23741 WAT       0.0620
  23742 WAT        23.9090   12.5940   17.0910 O      23742 WAT       0.0626
  23743 WAT        23.9090   12.5940   17.3410 O      23743 WAT       0.0560
  23744 WAT        23.9090   12.5940   27.3410 O      23744 WAT       0.0453
  23745 WAT        23.9090   12.8440   12.5910 O      23745 WAT       0.0484
  23746 WAT        23.9090   12.8440   12.8410 O      23746 WAT       0.0530
  23747 WAT        23.9090   12.8440   13.0910 O      23747 WAT       0.0540
  23748 WAT        23.9090   12.8440   13.3410 O      23748 WAT       0.0507
  23749 WAT        23.9090   12.8440   17.0910 O      23749 WAT       0.0470
  23750 WAT        23.9090   13.0940   12.3410 O      23750 WAT       0.0472
  23751 WAT        23.9090   13.0940   12.5910 O      23751 WAT       0.0523
  23752 WAT        23.9090   13.0940   12.8410 O      23752 WAT       0.0529
  23753 WAT        23.9090   13.0940   13.0910 O      23753 WAT       0.0471
  23754 WAT        23.9090   13.3440   18.8410 O      23754 WAT       0.0480
  23755 WAT        23.9090   13.3440   19.0910 O      23755 WAT       0.0512
  23756 WAT        23.9090   13.3440   19.3410 O      23756 WAT       0.0513
  23757 WAT        23.9090   13.3440   19.5910 O      23757 WAT       0.0482
  23758 WAT        23.9090   13.5940   18.3410 O      23758 WAT       0.0470
  23759 WAT        23.9090   13.5940   18.5910 O      23759 WAT       0.0597
  23760 WAT        23.9090   13.5940   18.8410 O      23760 WAT       0.0658
  23761 WAT        23.9090   13.5940   19.0910 O      23761 WAT       0.0641
  23762 WAT        23.9090   13.5940   19.3410 O      23762 WAT       0.0577
  23763 WAT        23.9090   13.5940   19.5910 O      23763 WAT       0.0491
  23764 WAT        23.9090   13.5940   27.8410 O      23764 WAT       0.0512
  23765 WAT        23.9090   13.5940   28.0910 O      23765 WAT       0.0619
  23766 WAT        23.9090   13.5940   28.3410 O      23766 WAT       0.0484
  23767 WAT        23.9090   13.8440   18.3410 O      23767 WAT       0.0593
  23768 WAT        23.9090   13.8440   18.5910 O      23768 WAT       0.0752
  23769 WAT        23.9090   13.8440   18.8410 O      23769 WAT       0.0784
  23770 WAT        23.9090   13.8440   19.0910 O      23770 WAT       0.0693
  23771 WAT        23.9090   13.8440   19.3410 O      23771 WAT       0.0550
  23772 WAT        23.9090   13.8440   27.5910 O      23772 WAT       0.0551
  23773 WAT        23.9090   13.8440   27.8410 O      23773 WAT       0.1087
  23774 WAT        23.9090   13.8440   28.0910 O      23774 WAT       0.1368
  23775 WAT        23.9090   13.8440   28.3410 O      23775 WAT       0.1121
  23776 WAT        23.9090   13.8440   28.5910 O      23776 WAT       0.0612
  23777 WAT        23.9090   14.0940   18.3410 O      23777 WAT       0.0652
  23778 WAT        23.9090   14.0940   18.5910 O      23778 WAT       0.0817
  23779 WAT        23.9090   14.0940   18.8410 O      23779 WAT       0.0805
  23780 WAT        23.9090   14.0940   19.0910 O      23780 WAT       0.0646
  23781 WAT        23.9090   14.0940   27.5910 O      23781 WAT       0.0928
  23782 WAT        23.9090   14.0940   27.8410 O      23782 WAT       0.1850
  23783 WAT        23.9090   14.0940   28.0910 O      23783 WAT       0.2368
  23784 WAT        23.9090   14.0940   28.3410 O      23784 WAT       0.1991
  23785 WAT        23.9090   14.0940   28.5910 O      23785 WAT       0.1133
  23786 WAT        23.9090   14.3440   18.3410 O      23786 WAT       0.0606
  23787 WAT        23.9090   14.3440   18.5910 O      23787 WAT       0.0754
  23788 WAT        23.9090   14.3440   18.8410 O      23788 WAT       0.0712
  23789 WAT        23.9090   14.3440   19.0910 O      23789 WAT       0.0526
  23790 WAT        23.9090   14.3440   27.5910 O      23790 WAT       0.1231
  23791 WAT        23.9090   14.3440   27.8410 O      23791 WAT       0.2449
  23792 WAT        23.9090   14.3440   28.0910 O      23792 WAT       0.3149
  23793 WAT        23.9090   14.3440   28.3410 O      23793 WAT       0.2682
  23794 WAT        23.9090   14.3440   28.5910 O      23794 WAT       0.1569
  23795 WAT        23.9090   14.3440   28.8410 O      23795 WAT       0.0653
  23796 WAT        23.9090   14.5940   18.3410 O      23796 WAT       0.0471
  23797 WAT        23.9090   14.5940   18.5910 O      23797 WAT       0.0590
  23798 WAT        23.9090   14.5940   18.8410 O      23798 WAT       0.0543
  23799 WAT        23.9090   14.5940   27.5910 O      23799 WAT       0.1261
  23800 WAT        23.9090   14.5940   27.8410 O      23800 WAT       0.2481
  23801 WAT        23.9090   14.5940   28.0910 O      23801 WAT       0.3179
  23802 WAT        23.9090   14.5940   28.3410 O      23802 WAT       0.2724
  23803 WAT        23.9090   14.5940   28.5910 O      23803 WAT       0.1623
  23804 WAT        23.9090   14.5940   28.8410 O      23804 WAT       0.0700
  23805 WAT        23.9090   14.8440   27.5910 O      23805 WAT       0.0986
  23806 WAT        23.9090   14.8440   27.8410 O      23806 WAT       0.1901
  23807 WAT        23.9090   14.8440   28.0910 O      23807 WAT       0.2411
  23808 WAT        23.9090   14.8440   28.3410 O      23808 WAT       0.2066
  23809 WAT        23.9090   14.8440   28.5910 O      23809 WAT       0.1248
  23810 WAT        23.9090   14.8440   28.8410 O      23810 WAT       0.0552
  23811 WAT        23.9090   15.0940   27.5910 O      23811 WAT       0.0587
  23812 WAT        23.9090   15.0940   27.8410 O      23812 WAT       0.1092
  23813 WAT        23.9090   15.0940   28.0910 O      23813 WAT       0.1359
  23814 WAT        23.9090   15.0940   28.3410 O      23814 WAT       0.1159
  23815 WAT        23.9090   15.0940   28.5910 O      23815 WAT       0.0705
  23816 WAT        23.9090   15.3440   27.8410 O      23816 WAT       0.0473
  23817 WAT        23.9090   15.3440   28.0910 O      23817 WAT       0.0566
  23818 WAT        23.9090   15.3440   28.3410 O      23818 WAT       0.0473
  23819 WAT        23.9090   17.0940    5.5910 O      23819 WAT       0.0461
  23820 WAT        23.9090   17.0940    5.8410 O      23820 WAT       0.0530
  23821 WAT        23.9090   17.0940    6.0910 O      23821 WAT       0.0567
  23822 WAT        23.9090   17.0940    6.3410 O      23822 WAT       0.0568
  23823 WAT        23.9090   17.0940    6.5910 O      23823 WAT       0.0529
  23824 WAT        23.9090   17.0940    6.8410 O      23824 WAT       0.0452
  23825 WAT        23.9090   17.3440    3.0910 O      23825 WAT       0.0463
  23826 WAT        23.9090   17.3440    3.3410 O      23826 WAT       0.0476
  23827 WAT        23.9090   17.3440    5.3410 O      23827 WAT       0.0570
  23828 WAT        23.9090   17.3440    5.5910 O      23828 WAT       0.0703
  23829 WAT        23.9090   17.3440    5.8410 O      23829 WAT       0.0809
  23830 WAT        23.9090   17.3440    6.0910 O      23830 WAT       0.0851
  23831 WAT        23.9090   17.3440    6.3410 O      23831 WAT       0.0814
  23832 WAT        23.9090   17.3440    6.5910 O      23832 WAT       0.0702
  23833 WAT        23.9090   17.3440    6.8410 O      23833 WAT       0.0538
  23834 WAT        23.9090   17.5940    2.8410 O      23834 WAT       0.0464
  23835 WAT        23.9090   17.5940    3.0910 O      23835 WAT       0.0500
  23836 WAT        23.9090   17.5940    3.3410 O      23836 WAT       0.0493
  23837 WAT        23.9090   17.5940    5.0910 O      23837 WAT       0.0566
  23838 WAT        23.9090   17.5940    5.3410 O      23838 WAT       0.0733
  23839 WAT        23.9090   17.5940    5.5910 O      23839 WAT       0.0907
  23840 WAT        23.9090   17.5940    5.8410 O      23840 WAT       0.1042
  23841 WAT        23.9090   17.5940    6.0910 O      23841 WAT       0.1081
  23842 WAT        23.9090   17.5940    6.3410 O      23842 WAT       0.0994
  23843 WAT        23.9090   17.5940    6.5910 O      23843 WAT       0.0798
  23844 WAT        23.9090   17.5940    6.8410 O      23844 WAT       0.0552
  23845 WAT        23.9090   17.8440    2.8410 O      23845 WAT       0.0451
  23846 WAT        23.9090   17.8440    3.0910 O      23846 WAT       0.0464
  23847 WAT        23.9090   17.8440    5.0910 O      23847 WAT       0.0575
  23848 WAT        23.9090   17.8440    5.3410 O      23848 WAT       0.0756
  23849 WAT        23.9090   17.8440    5.5910 O      23849 WAT       0.0949
  23850 WAT        23.9090   17.8440    5.8410 O      23850 WAT       0.1097
  23851 WAT        23.9090   17.8440    6.0910 O      23851 WAT       0.1131
  23852 WAT        23.9090   17.8440    6.3410 O      23852 WAT       0.1008
  23853 WAT        23.9090   17.8440    6.5910 O      23853 WAT       0.0761
  23854 WAT        23.9090   17.8440    6.8410 O      23854 WAT       0.0478
  23855 WAT        23.9090   18.0940    5.3410 O      23855 WAT       0.0604
  23856 WAT        23.9090   18.0940    5.5910 O      23856 WAT       0.0778
  23857 WAT        23.9090   18.0940    5.8410 O      23857 WAT       0.0918
  23858 WAT        23.9090   18.0940    6.0910 O      23858 WAT       0.0950
  23859 WAT        23.9090   18.0940    6.3410 O      23859 WAT       0.0830
  23860 WAT        23.9090   18.0940    6.5910 O      23860 WAT       0.0596
  23861 WAT        23.9090   18.3440    5.5910 O      23861 WAT       0.0491
  23862 WAT        23.9090   18.3440    5.8410 O      23862 WAT       0.0599
  23863 WAT        23.9090   18.3440    6.0910 O      23863 WAT       0.0629
  23864 WAT        23.9090   18.3440    6.3410 O      23864 WAT       0.0546
  23865 WAT        23.9090   22.8440   29.0910 O      23865 WAT       0.0519
  23866 WAT        23.9090   22.8440   29.3410 O      23866 WAT       0.0585
  23867 WAT        23.9090   23.0940   29.0910 O      23867 WAT       0.0707
  23868 WAT        23.9090   23.0940   29.3410 O      23868 WAT       0.0775
  23869 WAT        23.9090   23.0940   29.5910 O      23869 WAT       0.0567
  23870 WAT        23.9090   23.3440   19.5910 O      23870 WAT       0.0661
  23871 WAT        23.9090   23.3440   19.8410 O      23871 WAT       0.0845
  23872 WAT        23.9090   23.3440   20.0910 O      23872 WAT       0.0726
  23873 WAT        23.9090   23.3440   29.0910 O      23873 WAT       0.0621
  23874 WAT        23.9090   23.3440   29.3410 O      23874 WAT       0.0663
  23875 WAT        23.9090   23.3440   29.5910 O      23875 WAT       0.0476
  23876 WAT        23.9090   23.5940   19.3410 O      23876 WAT       0.0472
  23877 WAT        23.9090   23.5940   19.5910 O      23877 WAT       0.0935
  23878 WAT        23.9090   23.5940   19.8410 O      23878 WAT       0.1229
  23879 WAT        23.9090   23.5940   20.0910 O      23879 WAT       0.1100
  23880 WAT        23.9090   23.5940   20.3410 O      23880 WAT       0.0703
  23881 WAT        23.9090   23.8440   19.3410 O      23881 WAT       0.0531
  23882 WAT        23.9090   23.8440   19.5910 O      23882 WAT       0.1049
  23883 WAT        23.9090   23.8440   19.8410 O      23883 WAT       0.1390
  23884 WAT        23.9090   23.8440   20.0910 O      23884 WAT       0.1277
  23885 WAT        23.9090   23.8440   20.3410 O      23885 WAT       0.0868
  23886 WAT        23.9090   23.8440   20.5910 O      23886 WAT       0.0491
  23887 WAT        23.9090   24.0940   19.3410 O      23887 WAT       0.0501
  23888 WAT        23.9090   24.0940   19.5910 O      23888 WAT       0.0961
  23889 WAT        23.9090   24.0940   19.8410 O      23889 WAT       0.1258
  23890 WAT        23.9090   24.0940   20.0910 O      23890 WAT       0.1171
  23891 WAT        23.9090   24.0940   20.3410 O      23891 WAT       0.0840
  23892 WAT        23.9090   24.0940   20.5910 O      23892 WAT       0.0535
  23893 WAT        23.9090   24.3440   19.5910 O      23893 WAT       0.0754
  23894 WAT        23.9090   24.3440   19.8410 O      23894 WAT       0.0956
  23895 WAT        23.9090   24.3440   20.0910 O      23895 WAT       0.0890
  23896 WAT        23.9090   24.3440   20.3410 O      23896 WAT       0.0669
  23897 WAT        23.9090   24.3440   20.5910 O      23897 WAT       0.0473
  23898 WAT        23.9090   24.5940   19.5910 O      23898 WAT       0.0544
  23899 WAT        23.9090   24.5940   19.8410 O      23899 WAT       0.0652
  23900 WAT        23.9090   24.5940   20.0910 O      23900 WAT       0.0602
  23901 WAT        23.9090   24.5940   20.3410 O      23901 WAT       0.0473
  23902 WAT        23.9090   24.5940   21.8410 O      23902 WAT       0.0473
  23903 WAT        23.9090   24.5940   22.0910 O      23903 WAT       0.0496
  23904 WAT        23.9090   24.8440    2.5910 O      23904 WAT       0.0465
  23905 WAT        23.9090   24.8440   22.0910 O      23905 WAT       0.0474
  23906 WAT        23.9090   24.8440   22.3410 O      23906 WAT       0.0459
  23907 WAT        23.9090   25.0940    2.5910 O      23907 WAT       0.0798
  23908 WAT        23.9090   25.0940   22.5910 O      23908 WAT       0.0455
  23909 WAT        23.9090   25.3440    2.5910 O      23909 WAT       0.0918
  23910 WAT        23.9090   25.3440   22.3410 O      23910 WAT       0.0486
  23911 WAT        23.9090   25.3440   22.5910 O      23911 WAT       0.0600
  23912 WAT        23.9090   25.3440   22.8410 O      23912 WAT       0.0676
  23913 WAT        23.9090   25.3440   23.0910 O      23913 WAT       0.0651
  23914 WAT        23.9090   25.3440   23.3410 O      23914 WAT       0.0511
  23915 WAT        23.9090   25.5940    2.5910 O      23915 WAT       0.0695
  23916 WAT        23.9090   25.5940   18.8410 O      23916 WAT       0.0451
  23917 WAT        23.9090   25.5940   22.3410 O      23917 WAT       0.0586
  23918 WAT        23.9090   25.5940   22.5910 O      23918 WAT       0.0752
  23919 WAT        23.9090   25.5940   22.8410 O      23919 WAT       0.0870
  23920 WAT        23.9090   25.5940   23.0910 O      23920 WAT       0.0851
  23921 WAT        23.9090   25.5940   23.3410 O      23921 WAT       0.0678
  23922 WAT        23.9090   25.8440   18.3410 O      23922 WAT       0.0548
  23923 WAT        23.9090   25.8440   18.5910 O      23923 WAT       0.0641
  23924 WAT        23.9090   25.8440   18.8410 O      23924 WAT       0.0603
  23925 WAT        23.9090   25.8440   22.0910 O      23925 WAT       0.0472
  23926 WAT        23.9090   25.8440   22.3410 O      23926 WAT       0.0613
  23927 WAT        23.9090   25.8440   22.5910 O      23927 WAT       0.0743
  23928 WAT        23.9090   25.8440   22.8410 O      23928 WAT       0.0816
  23929 WAT        23.9090   25.8440   23.0910 O      23929 WAT       0.0770
  23930 WAT        23.9090   25.8440   23.3410 O      23930 WAT       0.0602
  23931 WAT        23.9090   26.0940   17.8410 O      23931 WAT       0.0569
  23932 WAT        23.9090   26.0940   18.0910 O      23932 WAT       0.0714
  23933 WAT        23.9090   26.0940   18.3410 O      23933 WAT       0.0800
  23934 WAT        23.9090   26.0940   18.5910 O      23934 WAT       0.0772
  23935 WAT        23.9090   26.0940   18.8410 O      23935 WAT       0.0610
  23936 WAT        23.9090   26.0940   22.3410 O      23936 WAT       0.0477
  23937 WAT        23.9090   26.0940   22.5910 O      23937 WAT       0.0527
  23938 WAT        23.9090   26.0940   22.8410 O      23938 WAT       0.0531
  23939 WAT        23.9090   26.0940   23.0910 O      23939 WAT       0.0468
  23940 WAT        23.9090   26.3440   17.5910 O      23940 WAT       0.0660
  23941 WAT        23.9090   26.3440   17.8410 O      23941 WAT       0.0837
  23942 WAT        23.9090   26.3440   18.0910 O      23942 WAT       0.0899
  23943 WAT        23.9090   26.3440   18.3410 O      23943 WAT       0.0842
  23944 WAT        23.9090   26.3440   18.5910 O      23944 WAT       0.0684
  23945 WAT        23.9090   26.3440   18.8410 O      23945 WAT       0.0463
  23946 WAT        23.9090   26.3440   28.5910 O      23946 WAT       0.0490
  23947 WAT        23.9090   26.3440   28.8410 O      23947 WAT       0.0683
  23948 WAT        23.9090   26.3440   29.0910 O      23948 WAT       0.0695
  23949 WAT        23.9090   26.3440   29.3410 O      23949 WAT       0.0511
  23950 WAT        23.9090   26.5940   17.3410 O      23950 WAT       0.0495
  23951 WAT        23.9090   26.5940   17.5910 O      23951 WAT       0.0715
  23952 WAT        23.9090   26.5940   17.8410 O      23952 WAT       0.0831
  23953 WAT        23.9090   26.5940   18.0910 O      23953 WAT       0.0792
  23954 WAT        23.9090   26.5940   18.3410 O      23954 WAT       0.0642
  23955 WAT        23.9090   26.5940   18.5910 O      23955 WAT       0.0451
  23956 WAT        23.9090   26.5940   28.5910 O      23956 WAT       0.0824
  23957 WAT        23.9090   26.5940   28.8410 O      23957 WAT       0.1152
  23958 WAT        23.9090   26.5940   29.0910 O      23958 WAT       0.1162
  23959 WAT        23.9090   26.5940   29.3410 O      23959 WAT       0.0840
  23960 WAT        23.9090   26.8440   17.5910 O      23960 WAT       0.0517
  23961 WAT        23.9090   26.8440   17.8410 O      23961 WAT       0.0563
  23962 WAT        23.9090   26.8440   18.0910 O      23962 WAT       0.0494
  23963 WAT        23.9090   26.8440   28.3410 O      23963 WAT       0.0560
  23964 WAT        23.9090   26.8440   28.5910 O      23964 WAT       0.1091
  23965 WAT        23.9090   26.8440   28.8410 O      23965 WAT       0.1546
  23966 WAT        23.9090   26.8440   29.0910 O      23966 WAT       0.1572
  23967 WAT        23.9090   26.8440   29.3410 O      23967 WAT       0.1141
  23968 WAT        23.9090   26.8440   29.5910 O      23968 WAT       0.0583
  23969 WAT        23.9090   27.0940   28.3410 O      23969 WAT       0.0558
  23970 WAT        23.9090   27.0940   28.5910 O      23970 WAT       0.1124
  23971 WAT        23.9090   27.0940   28.8410 O      23971 WAT       0.1635
  23972 WAT        23.9090   27.0940   29.0910 O      23972 WAT       0.1700
  23973 WAT        23.9090   27.0940   29.3410 O      23973 WAT       0.1257
  23974 WAT        23.9090   27.0940   29.5910 O      23974 WAT       0.0651
  23975 WAT        23.9090   27.3440   28.5910 O      23975 WAT       0.0894
  23976 WAT        23.9090   27.3440   28.8410 O      23976 WAT       0.1347
  23977 WAT        23.9090   27.3440   29.0910 O      23977 WAT       0.1448
  23978 WAT        23.9090   27.3440   29.3410 O      23978 WAT       0.1103
  23979 WAT        23.9090   27.3440   29.5910 O      23979 WAT       0.0585
  23980 WAT        23.9090   27.5940   28.5910 O      23980 WAT       0.0545
  23981 WAT        23.9090   27.5940   28.8410 O      23981 WAT       0.0859
  23982 WAT        23.9090   27.5940   29.0910 O      23982 WAT       0.0964
  23983 WAT        23.9090   27.5940   29.3410 O      23983 WAT       0.0764
  23984 WAT        23.9090   27.8440   15.5910 O      23984 WAT       0.0473
  23985 WAT        23.9090   27.8440   15.8410 O      23985 WAT       0.0497
  23986 WAT        23.9090   27.8440   26.5910 O      23986 WAT       0.0668
  23987 WAT        23.9090   27.8440   26.8410 O      23987 WAT       0.0673
  23988 WAT        23.9090   27.8440   29.0910 O      23988 WAT       0.0502
  23989 WAT        23.9090   28.0940   15.3410 O      23989 WAT       0.0763
  23990 WAT        23.9090   28.0940   15.5910 O      23990 WAT       0.1104
  23991 WAT        23.9090   28.0940   15.8410 O      23991 WAT       0.1262
  23992 WAT        23.9090   28.0940   16.0910 O      23992 WAT       0.1158
  23993 WAT        23.9090   28.0940   16.3410 O      23993 WAT       0.0850
  23994 WAT        23.9090   28.0940   16.5910 O      23994 WAT       0.0494
  23995 WAT        23.9090   28.0940   26.3410 O      23995 WAT       0.0769
  23996 WAT        23.9090   28.0940   26.5910 O      23996 WAT       0.1232
  23997 WAT        23.9090   28.0940   26.8410 O      23997 WAT       0.1239
  23998 WAT        23.9090   28.0940   27.0910 O      23998 WAT       0.0793
  23999 WAT        23.9090   28.3440   15.0910 O      23999 WAT       0.0562
  24000 WAT        23.9090   28.3440   15.3410 O      24000 WAT       0.1126
  24001 WAT        23.9090   28.3440   15.5910 O      24001 WAT       0.1760
  24002 WAT        23.9090   28.3440   15.8410 O      24002 WAT       0.2211
  24003 WAT        23.9090   28.3440   16.0910 O      24003 WAT       0.2251
  24004 WAT        23.9090   28.3440   16.3410 O      24004 WAT       0.1843
  24005 WAT        23.9090   28.3440   16.5910 O      24005 WAT       0.1194
  24006 WAT        23.9090   28.3440   16.8410 O      24006 WAT       0.0604
  24007 WAT        23.9090   28.3440   18.0910 O      24007 WAT       0.0495
  24008 WAT        23.9090   28.3440   18.3410 O      24008 WAT       0.0556
  24009 WAT        23.9090   28.3440   18.5910 O      24009 WAT       0.0453
  24010 WAT        23.9090   28.3440   26.0910 O      24010 WAT       0.0454
  24011 WAT        23.9090   28.3440   26.3410 O      24011 WAT       0.1187
  24012 WAT        23.9090   28.3440   26.5910 O      24012 WAT       0.1890
  24013 WAT        23.9090   28.3440   26.8410 O      24013 WAT       0.1890
  24014 WAT        23.9090   28.3440   27.0910 O      24014 WAT       0.1199
  24015 WAT        23.9090   28.3440   27.3410 O      24015 WAT       0.0482
  24016 WAT        23.9090   28.5940   15.0910 O      24016 WAT       0.0521
  24017 WAT        23.9090   28.5940   15.3410 O      24017 WAT       0.1124
  24018 WAT        23.9090   28.5940   15.5910 O      24018 WAT       0.1927
  24019 WAT        23.9090   28.5940   15.8410 O      24019 WAT       0.2691
  24020 WAT        23.9090   28.5940   16.0910 O      24020 WAT       0.3068
  24021 WAT        23.9090   28.5940   16.3410 O      24021 WAT       0.2808
  24022 WAT        23.9090   28.5940   16.5910 O      24022 WAT       0.2017
  24023 WAT        23.9090   28.5940   16.8410 O      24023 WAT       0.1114
  24024 WAT        23.9090   28.5940   17.0910 O      24024 WAT       0.0476
  24025 WAT        23.9090   28.5940   18.0910 O      24025 WAT       0.0590
  24026 WAT        23.9090   28.5940   18.3410 O      24026 WAT       0.0638
  24027 WAT        23.9090   28.5940   18.5910 O      24027 WAT       0.0495
  24028 WAT        23.9090   28.5940   26.0910 O      24028 WAT       0.0573
  24029 WAT        23.9090   28.5940   26.3410 O      24029 WAT       0.1476
  24030 WAT        23.9090   28.5940   26.5910 O      24030 WAT       0.2334
  24031 WAT        23.9090   28.5940   26.8410 O      24031 WAT       0.2316
  24032 WAT        23.9090   28.5940   27.0910 O      24032 WAT       0.1451
  24033 WAT        23.9090   28.5940   27.3410 O      24033 WAT       0.0574
  24034 WAT        23.9090   28.8440   15.3410 O      24034 WAT       0.0764
  24035 WAT        23.9090   28.8440   15.5910 O      24035 WAT       0.1460
  24036 WAT        23.9090   28.8440   15.8410 O      24036 WAT       0.2293
  24037 WAT        23.9090   28.8440   16.0910 O      24037 WAT       0.2940
  24038 WAT        23.9090   28.8440   16.3410 O      24038 WAT       0.3004
  24039 WAT        23.9090   28.8440   16.5910 O      24039 WAT       0.2371
  24040 WAT        23.9090   28.8440   16.8410 O      24040 WAT       0.1412
  24041 WAT        23.9090   28.8440   17.0910 O      24041 WAT       0.0636
  24042 WAT        23.9090   28.8440   18.0910 O      24042 WAT       0.0495
  24043 WAT        23.9090   28.8440   18.3410 O      24043 WAT       0.0514
  24044 WAT        23.9090   28.8440   26.0910 O      24044 WAT       0.0566
  24045 WAT        23.9090   28.8440   26.3410 O      24045 WAT       0.1445
  24046 WAT        23.9090   28.8440   26.5910 O      24046 WAT       0.2265
  24047 WAT        23.9090   28.8440   26.8410 O      24047 WAT       0.2223
  24048 WAT        23.9090   28.8440   27.0910 O      24048 WAT       0.1373
  24049 WAT        23.9090   28.8440   27.3410 O      24049 WAT       0.0532
  24050 WAT        23.9090   29.0940   15.5910 O      24050 WAT       0.0769
  24051 WAT        23.9090   29.0940   15.8410 O      24051 WAT       0.1373
  24052 WAT        23.9090   29.0940   16.0910 O      24052 WAT       0.1976
  24053 WAT        23.9090   29.0940   16.3410 O      24053 WAT       0.2230
  24054 WAT        23.9090   29.0940   16.5910 O      24054 WAT       0.1909
  24055 WAT        23.9090   29.0940   16.8410 O      24055 WAT       0.1212
  24056 WAT        23.9090   29.0940   17.0910 O      24056 WAT       0.0572
  24057 WAT        23.9090   29.0940   26.3410 O      24057 WAT       0.1095
  24058 WAT        23.9090   29.0940   26.5910 O      24058 WAT       0.1696
  24059 WAT        23.9090   29.0940   26.8410 O      24059 WAT       0.1641
  24060 WAT        23.9090   29.0940   27.0910 O      24060 WAT       0.0995
  24061 WAT        23.9090   29.3440   15.8410 O      24061 WAT       0.0571
  24062 WAT        23.9090   29.3440   16.0910 O      24062 WAT       0.0920
  24063 WAT        23.9090   29.3440   16.3410 O      24063 WAT       0.1131
  24064 WAT        23.9090   29.3440   16.5910 O      24064 WAT       0.1036
  24065 WAT        23.9090   29.3440   16.8410 O      24065 WAT       0.0693
  24066 WAT        23.9090   29.3440   26.3410 O      24066 WAT       0.0638
  24067 WAT        23.9090   29.3440   26.5910 O      24067 WAT       0.0972
  24068 WAT        23.9090   29.3440   26.8410 O      24068 WAT       0.0921
  24069 WAT        23.9090   29.3440   27.0910 O      24069 WAT       0.0545
  24070 WAT        23.9090   33.0940   26.8410 O      24070 WAT       0.0482
  24071 WAT        23.9090   33.0940   27.0910 O      24071 WAT       0.0531
  24072 WAT        23.9090   33.0940   27.3410 O      24072 WAT       0.0514
  24073 WAT        23.9090   33.3440   26.8410 O      24073 WAT       0.0529
  24074 WAT        23.9090   33.3440   27.0910 O      24074 WAT       0.0621
  24075 WAT        23.9090   33.3440   27.3410 O      24075 WAT       0.0649
  24076 WAT        23.9090   33.3440   27.5910 O      24076 WAT       0.0594
  24077 WAT        23.9090   33.3440   27.8410 O      24077 WAT       0.0479
  24078 WAT        23.9090   33.5940   26.8410 O      24078 WAT       0.0543
  24079 WAT        23.9090   33.5940   27.0910 O      24079 WAT       0.0671
  24080 WAT        23.9090   33.5940   27.3410 O      24080 WAT       0.0740
  24081 WAT        23.9090   33.5940   27.5910 O      24081 WAT       0.0720
  24082 WAT        23.9090   33.5940   27.8410 O      24082 WAT       0.0623
  24083 WAT        23.9090   33.5940   28.0910 O      24083 WAT       0.0488
  24084 WAT        23.9090   33.8440   26.8410 O      24084 WAT       0.0519
  24085 WAT        23.9090   33.8440   27.0910 O      24085 WAT       0.0664
  24086 WAT        23.9090   33.8440   27.3410 O      24086 WAT       0.0760
  24087 WAT        23.9090   33.8440   27.5910 O      24087 WAT       0.0775
  24088 WAT        23.9090   33.8440   27.8410 O      24088 WAT       0.0710
  24089 WAT        23.9090   33.8440   28.0910 O      24089 WAT       0.0596
  24090 WAT        23.9090   33.8440   28.3410 O      24090 WAT       0.0464
  24091 WAT        23.9090   34.0940   11.8410 O      24091 WAT       0.0525
  24092 WAT        23.9090   34.0940   12.0910 O      24092 WAT       0.0589
  24093 WAT        23.9090   34.0940   12.3410 O      24093 WAT       0.0454
  24094 WAT        23.9090   34.0940   16.0910 O      24094 WAT       0.0613
  24095 WAT        23.9090   34.0940   16.3410 O      24095 WAT       0.0736
  24096 WAT        23.9090   34.0940   16.5910 O      24096 WAT       0.0610
  24097 WAT        23.9090   34.0940   26.8410 O      24097 WAT       0.0468
  24098 WAT        23.9090   34.0940   27.0910 O      24098 WAT       0.0609
  24099 WAT        23.9090   34.0940   27.3410 O      24099 WAT       0.0713
  24100 WAT        23.9090   34.0940   27.5910 O      24100 WAT       0.0753
  24101 WAT        23.9090   34.0940   27.8410 O      24101 WAT       0.0724
  24102 WAT        23.9090   34.0940   28.0910 O      24102 WAT       0.0646
  24103 WAT        23.9090   34.0940   28.3410 O      24103 WAT       0.0538
  24104 WAT        23.9090   34.3440   11.8410 O      24104 WAT       0.0522
  24105 WAT        23.9090   34.3440   12.0910 O      24105 WAT       0.0660
  24106 WAT        23.9090   34.3440   12.3410 O      24106 WAT       0.0580
  24107 WAT        23.9090   34.3440   15.8410 O      24107 WAT       0.0582
  24108 WAT        23.9090   34.3440   16.0910 O      24108 WAT       0.0904
  24109 WAT        23.9090   34.3440   16.3410 O      24109 WAT       0.1003
  24110 WAT        23.9090   34.3440   16.5910 O      24110 WAT       0.0784
  24111 WAT        23.9090   34.3440   27.0910 O      24111 WAT       0.0531
  24112 WAT        23.9090   34.3440   27.3410 O      24112 WAT       0.0633
  24113 WAT        23.9090   34.3440   27.5910 O      24113 WAT       0.0687
  24114 WAT        23.9090   34.3440   27.8410 O      24114 WAT       0.0686
  24115 WAT        23.9090   34.3440   28.0910 O      24115 WAT       0.0641
  24116 WAT        23.9090   34.3440   28.3410 O      24116 WAT       0.0560
  24117 WAT        23.9090   34.3440   28.5910 O      24117 WAT       0.0457
  24118 WAT        23.9090   34.5940   12.0910 O      24118 WAT       0.0565
  24119 WAT        23.9090   34.5940   12.3410 O      24119 WAT       0.0563
  24120 WAT        23.9090   34.5940   15.8410 O      24120 WAT       0.0746
  24121 WAT        23.9090   34.5940   16.0910 O      24121 WAT       0.1036
  24122 WAT        23.9090   34.5940   16.3410 O      24122 WAT       0.1055
  24123 WAT        23.9090   34.5940   16.5910 O      24123 WAT       0.0774
  24124 WAT        23.9090   34.5940   18.8410 O      24124 WAT       0.0516
  24125 WAT        23.9090   34.5940   19.0910 O      24125 WAT       0.0577
  24126 WAT        23.9090   34.5940   19.3410 O      24126 WAT       0.0594
  24127 WAT        23.9090   34.5940   19.5910 O      24127 WAT       0.0574
  24128 WAT        23.9090   34.5940   19.8410 O      24128 WAT       0.0523
  24129 WAT        23.9090   34.5940   20.0910 O      24129 WAT       0.0455
  24130 WAT        23.9090   34.5940   27.0910 O      24130 WAT       0.0451
  24131 WAT        23.9090   34.5940   27.3410 O      24131 WAT       0.0546
  24132 WAT        23.9090   34.5940   27.5910 O      24132 WAT       0.0605
  24133 WAT        23.9090   34.5940   27.8410 O      24133 WAT       0.0620
  24134 WAT        23.9090   34.5940   28.0910 O      24134 WAT       0.0593
  24135 WAT        23.9090   34.5940   28.3410 O      24135 WAT       0.0528
  24136 WAT        23.9090   34.8440   15.5910 O      24136 WAT       0.0457
  24137 WAT        23.9090   34.8440   15.8410 O      24137 WAT       0.0738
  24138 WAT        23.9090   34.8440   16.0910 O      24138 WAT       0.0912
  24139 WAT        23.9090   34.8440   16.3410 O      24139 WAT       0.0845
  24140 WAT        23.9090   34.8440   16.5910 O      24140 WAT       0.0579
  24141 WAT        23.9090   34.8440   18.5910 O      24141 WAT       0.0601
  24142 WAT        23.9090   34.8440   18.8410 O      24142 WAT       0.0723
  24143 WAT        23.9090   34.8440   19.0910 O      24143 WAT       0.0774
  24144 WAT        23.9090   34.8440   19.3410 O      24144 WAT       0.0764
  24145 WAT        23.9090   34.8440   19.5910 O      24145 WAT       0.0713
  24146 WAT        23.9090   34.8440   19.8410 O      24146 WAT       0.0630
  24147 WAT        23.9090   34.8440   20.0910 O      24147 WAT       0.0529
  24148 WAT        23.9090   34.8440   27.3410 O      24148 WAT       0.0453
  24149 WAT        23.9090   34.8440   27.5910 O      24149 WAT       0.0510
  24150 WAT        23.9090   34.8440   27.8410 O      24150 WAT       0.0528
  24151 WAT        23.9090   34.8440   28.0910 O      24151 WAT       0.0507
  24152 WAT        23.9090   34.8440   28.3410 O      24152 WAT       0.0453
  24153 WAT        23.9090   35.0940   15.8410 O      24153 WAT       0.0551
  24154 WAT        23.9090   35.0940   16.0910 O      24154 WAT       0.0606
  24155 WAT        23.9090   35.0940   16.3410 O      24155 WAT       0.0509
  24156 WAT        23.9090   35.0940   18.3410 O      24156 WAT       0.0474
  24157 WAT        23.9090   35.0940   18.5910 O      24157 WAT       0.0632
  24158 WAT        23.9090   35.0940   18.8410 O      24158 WAT       0.0733
  24159 WAT        23.9090   35.0940   19.0910 O      24159 WAT       0.0757
  24160 WAT        23.9090   35.0940   19.3410 O      24160 WAT       0.0724
  24161 WAT        23.9090   35.0940   19.5910 O      24161 WAT       0.0658
  24162 WAT        23.9090   35.0940   19.8410 O      24162 WAT       0.0567
  24163 WAT        23.9090   35.0940   20.0910 O      24163 WAT       0.0464
  24164 WAT        23.9090   35.3440   18.5910 O      24164 WAT       0.0456
  24165 WAT        23.9090   35.3440   18.8410 O      24165 WAT       0.0513
  24166 WAT        23.9090   35.3440   19.0910 O      24166 WAT       0.0516
  24167 WAT        23.9090   35.3440   19.3410 O      24167 WAT       0.0482
  24168 WAT        24.1590    8.3440   24.0910 O      24168 WAT       0.0467
  24169 WAT        24.1590    8.3440   24.3410 O      24169 WAT       0.0460
  24170 WAT        24.1590    8.3440   28.8410 O      24170 WAT       0.0495
  24171 WAT        24.1590    8.3440   29.0910 O      24171 WAT       0.0603
  24172 WAT        24.1590    8.3440   29.3410 O      24172 WAT       0.0552
  24173 WAT        24.1590    8.5940   23.8410 O      24173 WAT       0.0469
  24174 WAT        24.1590    8.5940   24.0910 O      24174 WAT       0.0520
  24175 WAT        24.1590    8.5940   24.3410 O      24175 WAT       0.0532
  24176 WAT        24.1590    8.5940   24.5910 O      24176 WAT       0.0496
  24177 WAT        24.1590    8.8440   24.0910 O      24177 WAT       0.0487
  24178 WAT        24.1590    8.8440   24.3410 O      24178 WAT       0.0522
  24179 WAT        24.1590    8.8440   24.5910 O      24179 WAT       0.0507
  24180 WAT        24.1590    8.8440   24.8410 O      24180 WAT       0.0460
  24181 WAT        24.1590    9.8440   18.5910 O      24181 WAT       0.0463
  24182 WAT        24.1590    9.8440   18.8410 O      24182 WAT       0.0483
  24183 WAT        24.1590    9.8440   19.0910 O      24183 WAT       0.0488
  24184 WAT        24.1590    9.8440   19.3410 O      24184 WAT       0.0482
  24185 WAT        24.1590    9.8440   19.5910 O      24185 WAT       0.0467
  24186 WAT        24.1590   10.0940   18.5910 O      24186 WAT       0.0479
  24187 WAT        24.1590   10.0940   18.8410 O      24187 WAT       0.0525
  24188 WAT        24.1590   10.0940   19.0910 O      24188 WAT       0.0561
  24189 WAT        24.1590   10.0940   19.3410 O      24189 WAT       0.0584
  24190 WAT        24.1590   10.0940   19.5910 O      24190 WAT       0.0593
  24191 WAT        24.1590   10.0940   19.8410 O      24191 WAT       0.0579
  24192 WAT        24.1590   10.0940   20.0910 O      24192 WAT       0.0526
  24193 WAT        24.1590   10.3440   18.8410 O      24193 WAT       0.0510
  24194 WAT        24.1590   10.3440   19.0910 O      24194 WAT       0.0578
  24195 WAT        24.1590   10.3440   19.3410 O      24195 WAT       0.0641
  24196 WAT        24.1590   10.3440   19.5910 O      24196 WAT       0.0687
  24197 WAT        24.1590   10.3440   19.8410 O      24197 WAT       0.0690
  24198 WAT        24.1590   10.3440   20.0910 O      24198 WAT       0.0621
  24199 WAT        24.1590   10.3440   20.3410 O      24199 WAT       0.0478
  24200 WAT        24.1590   10.3440   26.5910 O      24200 WAT       0.0464
  24201 WAT        24.1590   10.5940   19.0910 O      24201 WAT       0.0535
  24202 WAT        24.1590   10.5940   19.3410 O      24202 WAT       0.0635
  24203 WAT        24.1590   10.5940   19.5910 O      24203 WAT       0.0719
  24204 WAT        24.1590   10.5940   19.8410 O      24204 WAT       0.0741
  24205 WAT        24.1590   10.5940   20.0910 O      24205 WAT       0.0661
  24206 WAT        24.1590   10.5940   20.3410 O      24206 WAT       0.0490
  24207 WAT        24.1590   10.5940   26.5910 O      24207 WAT       0.0473
  24208 WAT        24.1590   10.5940   26.8410 O      24208 WAT       0.0480
  24209 WAT        24.1590   10.8440   19.3410 O      24209 WAT       0.0564
  24210 WAT        24.1590   10.8440   19.5910 O      24210 WAT       0.0671
  24211 WAT        24.1590   10.8440   19.8410 O      24211 WAT       0.0709
  24212 WAT        24.1590   10.8440   20.0910 O      24212 WAT       0.0633
  24213 WAT        24.1590   10.8440   20.3410 O      24213 WAT       0.0458
  24214 WAT        24.1590   10.8440   26.5910 O      24214 WAT       0.0464
  24215 WAT        24.1590   10.8440   26.8410 O      24215 WAT       0.0568
  24216 WAT        24.1590   10.8440   27.0910 O      24216 WAT       0.0547
  24217 WAT        24.1590   11.0940   19.3410 O      24217 WAT       0.0453
  24218 WAT        24.1590   11.0940   19.5910 O      24218 WAT       0.0559
  24219 WAT        24.1590   11.0940   19.8410 O      24219 WAT       0.0607
  24220 WAT        24.1590   11.0940   20.0910 O      24220 WAT       0.0546
  24221 WAT        24.1590   11.0940   26.5910 O      24221 WAT       0.0474
  24222 WAT        24.1590   11.0940   26.8410 O      24222 WAT       0.0723
  24223 WAT        24.1590   11.0940   27.0910 O      24223 WAT       0.0833
  24224 WAT        24.1590   11.0940   27.3410 O      24224 WAT       0.0711
  24225 WAT        24.1590   11.3440   19.8410 O      24225 WAT       0.0477
  24226 WAT        24.1590   11.3440   26.5910 O      24226 WAT       0.0517
  24227 WAT        24.1590   11.3440   26.8410 O      24227 WAT       0.0953
  24228 WAT        24.1590   11.3440   27.0910 O      24228 WAT       0.1261
  24229 WAT        24.1590   11.3440   27.3410 O      24229 WAT       0.1183
  24230 WAT        24.1590   11.3440   27.5910 O      24230 WAT       0.0776
  24231 WAT        24.1590   11.5940   16.8410 O      24231 WAT       0.0529
  24232 WAT        24.1590   11.5940   17.0910 O      24232 WAT       0.0584
  24233 WAT        24.1590   11.5940   17.3410 O      24233 WAT       0.0583
  24234 WAT        24.1590   11.5940   17.5910 O      24234 WAT       0.0522
  24235 WAT        24.1590   11.5940   26.5910 O      24235 WAT       0.0553
  24236 WAT        24.1590   11.5940   26.8410 O      24236 WAT       0.1164
  24237 WAT        24.1590   11.5940   27.0910 O      24237 WAT       0.1696
  24238 WAT        24.1590   11.5940   27.3410 O      24238 WAT       0.1704
  24239 WAT        24.1590   11.5940   27.5910 O      24239 WAT       0.1170
  24240 WAT        24.1590   11.5940   27.8410 O      24240 WAT       0.0541
  24241 WAT        24.1590   11.8440   16.5910 O      24241 WAT       0.0581
  24242 WAT        24.1590   11.8440   16.8410 O      24242 WAT       0.0695
  24243 WAT        24.1590   11.8440   17.0910 O      24243 WAT       0.0753
  24244 WAT        24.1590   11.8440   17.3410 O      24244 WAT       0.0732
  24245 WAT        24.1590   11.8440   17.5910 O      24245 WAT       0.0634
  24246 WAT        24.1590   11.8440   17.8410 O      24246 WAT       0.0490
  24247 WAT        24.1590   11.8440   26.5910 O      24247 WAT       0.0516
  24248 WAT        24.1590   11.8440   26.8410 O      24248 WAT       0.1194
  24249 WAT        24.1590   11.8440   27.0910 O      24249 WAT       0.1873
  24250 WAT        24.1590   11.8440   27.3410 O      24250 WAT       0.1991
  24251 WAT        24.1590   11.8440   27.5910 O      24251 WAT       0.1424
  24252 WAT        24.1590   11.8440   27.8410 O      24252 WAT       0.0679
  24253 WAT        24.1590   12.0940   16.3410 O      24253 WAT       0.0555
  24254 WAT        24.1590   12.0940   16.5910 O      24254 WAT       0.0709
  24255 WAT        24.1590   12.0940   16.8410 O      24255 WAT       0.0833
  24256 WAT        24.1590   12.0940   17.0910 O      24256 WAT       0.0881
  24257 WAT        24.1590   12.0940   17.3410 O      24257 WAT       0.0833
  24258 WAT        24.1590   12.0940   17.5910 O      24258 WAT       0.0701
  24259 WAT        24.1590   12.0940   17.8410 O      24259 WAT       0.0526
  24260 WAT        24.1590   12.0940   26.8410 O      24260 WAT       0.0971
  24261 WAT        24.1590   12.0940   27.0910 O      24261 WAT       0.1625
  24262 WAT        24.1590   12.0940   27.3410 O      24262 WAT       0.1822
  24263 WAT        24.1590   12.0940   27.5910 O      24263 WAT       0.1358
  24264 WAT        24.1590   12.0940   27.8410 O      24264 WAT       0.0668
  24265 WAT        24.1590   12.3440   16.0910 O      24265 WAT       0.0474
  24266 WAT        24.1590   12.3440   16.3410 O      24266 WAT       0.0609
  24267 WAT        24.1590   12.3440   16.5910 O      24267 WAT       0.0762
  24268 WAT        24.1590   12.3440   16.8410 O      24268 WAT       0.0881
  24269 WAT        24.1590   12.3440   17.0910 O      24269 WAT       0.0917
  24270 WAT        24.1590   12.3440   17.3410 O      24270 WAT       0.0850
  24271 WAT        24.1590   12.3440   17.5910 O      24271 WAT       0.0701
  24272 WAT        24.1590   12.3440   17.8410 O      24272 WAT       0.0519
  24273 WAT        24.1590   12.3440   26.8410 O      24273 WAT       0.0608
  24274 WAT        24.1590   12.3440   27.0910 O      24274 WAT       0.1085
  24275 WAT        24.1590   12.3440   27.3410 O      24275 WAT       0.1282
  24276 WAT        24.1590   12.3440   27.5910 O      24276 WAT       0.1000
  24277 WAT        24.1590   12.3440   27.8410 O      24277 WAT       0.0511
  24278 WAT        24.1590   12.5940   16.3410 O      24278 WAT       0.0560
  24279 WAT        24.1590   12.5940   16.5910 O      24279 WAT       0.0700
  24280 WAT        24.1590   12.5940   16.8410 O      24280 WAT       0.0808
  24281 WAT        24.1590   12.5940   17.0910 O      24281 WAT       0.0839
  24282 WAT        24.1590   12.5940   17.3410 O      24282 WAT       0.0774
  24283 WAT        24.1590   12.5940   17.5910 O      24283 WAT       0.0638
  24284 WAT        24.1590   12.5940   17.8410 O      24284 WAT       0.0479
  24285 WAT        24.1590   12.5940   27.0910 O      24285 WAT       0.0551
  24286 WAT        24.1590   12.5940   27.3410 O      24286 WAT       0.0690
  24287 WAT        24.1590   12.5940   27.5910 O      24287 WAT       0.0568
  24288 WAT        24.1590   12.8440   16.5910 O      24288 WAT       0.0532
  24289 WAT        24.1590   12.8440   16.8410 O      24289 WAT       0.0630
  24290 WAT        24.1590   12.8440   17.0910 O      24290 WAT       0.0667
  24291 WAT        24.1590   12.8440   17.3410 O      24291 WAT       0.0627
  24292 WAT        24.1590   12.8440   17.5910 O      24292 WAT       0.0532
  24293 WAT        24.1590   13.0940   17.0910 O      24293 WAT       0.0451
  24294 WAT        24.1590   13.0940   18.8410 O      24294 WAT       0.0475
  24295 WAT        24.1590   13.0940   19.0910 O      24295 WAT       0.0549
  24296 WAT        24.1590   13.0940   19.3410 O      24296 WAT       0.0597
  24297 WAT        24.1590   13.0940   19.5910 O      24297 WAT       0.0603
  24298 WAT        24.1590   13.0940   19.8410 O      24298 WAT       0.0554
  24299 WAT        24.1590   13.3440   18.3410 O      24299 WAT       0.0474
  24300 WAT        24.1590   13.3440   18.5910 O      24300 WAT       0.0596
  24301 WAT        24.1590   13.3440   18.8410 O      24301 WAT       0.0706
  24302 WAT        24.1590   13.3440   19.0910 O      24302 WAT       0.0774
  24303 WAT        24.1590   13.3440   19.3410 O      24303 WAT       0.0787
  24304 WAT        24.1590   13.3440   19.5910 O      24304 WAT       0.0741
  24305 WAT        24.1590   13.3440   19.8410 O      24305 WAT       0.0639
  24306 WAT        24.1590   13.3440   20.0910 O      24306 WAT       0.0487
  24307 WAT        24.1590   13.5940   18.3410 O      24307 WAT       0.0646
  24308 WAT        24.1590   13.5940   18.5910 O      24308 WAT       0.0836
  24309 WAT        24.1590   13.5940   18.8410 O      24309 WAT       0.0951
  24310 WAT        24.1590   13.5940   19.0910 O      24310 WAT       0.0963
  24311 WAT        24.1590   13.5940   19.3410 O      24311 WAT       0.0892
  24312 WAT        24.1590   13.5940   19.5910 O      24312 WAT       0.0771
  24313 WAT        24.1590   13.5940   19.8410 O      24313 WAT       0.0619
  24314 WAT        24.1590   13.5940   20.0910 O      24314 WAT       0.0452
  24315 WAT        24.1590   13.5940   27.8410 O      24315 WAT       0.0485
  24316 WAT        24.1590   13.5940   28.0910 O      24316 WAT       0.0629
  24317 WAT        24.1590   13.5940   28.3410 O      24317 WAT       0.0550
  24318 WAT        24.1590   13.8440   18.0910 O      24318 WAT       0.0529
  24319 WAT        24.1590   13.8440   18.3410 O      24319 WAT       0.0821
  24320 WAT        24.1590   13.8440   18.5910 O      24320 WAT       0.1056
  24321 WAT        24.1590   13.8440   18.8410 O      24321 WAT       0.1133
  24322 WAT        24.1590   13.8440   19.0910 O      24322 WAT       0.1046
  24323 WAT        24.1590   13.8440   19.3410 O      24323 WAT       0.0868
  24324 WAT        24.1590   13.8440   19.5910 O      24324 WAT       0.0674
  24325 WAT        24.1590   13.8440   19.8410 O      24325 WAT       0.0498
  24326 WAT        24.1590   13.8440   27.5910 O      24326 WAT       0.0479
  24327 WAT        24.1590   13.8440   27.8410 O      24327 WAT       0.0995
  24328 WAT        24.1590   13.8440   28.0910 O      24328 WAT       0.1364
  24329 WAT        24.1590   13.8440   28.3410 O      24329 WAT       0.1269
  24330 WAT        24.1590   13.8440   28.5910 O      24330 WAT       0.0819
  24331 WAT        24.1590   14.0940   18.0910 O      24331 WAT       0.0571
  24332 WAT        24.1590   14.0940   18.3410 O      24332 WAT       0.0921
  24333 WAT        24.1590   14.0940   18.5910 O      24333 WAT       0.1166
  24334 WAT        24.1590   14.0940   18.8410 O      24334 WAT       0.1181
  24335 WAT        24.1590   14.0940   19.0910 O      24335 WAT       0.0992
  24336 WAT        24.1590   14.0940   19.3410 O      24336 WAT       0.0731
  24337 WAT        24.1590   14.0940   19.5910 O      24337 WAT       0.0500
  24338 WAT        24.1590   14.0940   27.5910 O      24338 WAT       0.0777
  24339 WAT        24.1590   14.0940   27.8410 O      24339 WAT       0.1642
  24340 WAT        24.1590   14.0940   28.0910 O      24340 WAT       0.2310
  24341 WAT        24.1590   14.0940   28.3410 O      24341 WAT       0.2231
  24342 WAT        24.1590   14.0940   28.5910 O      24342 WAT       0.1527
  24343 WAT        24.1590   14.0940   28.8410 O      24343 WAT       0.0753
  24344 WAT        24.1590   14.3440   18.0910 O      24344 WAT       0.0535
  24345 WAT        24.1590   14.3440   18.3410 O      24345 WAT       0.0887
  24346 WAT        24.1590   14.3440   18.5910 O      24346 WAT       0.1111
  24347 WAT        24.1590   14.3440   18.8410 O      24347 WAT       0.1074
  24348 WAT        24.1590   14.3440   19.0910 O      24348 WAT       0.0830
  24349 WAT        24.1590   14.3440   19.3410 O      24349 WAT       0.0543
  24350 WAT        24.1590   14.3440   27.5910 O      24350 WAT       0.1006
  24351 WAT        24.1590   14.3440   27.8410 O      24351 WAT       0.2123
  24352 WAT        24.1590   14.3440   28.0910 O      24352 WAT       0.3014
  24353 WAT        24.1590   14.3440   28.3410 O      24353 WAT       0.2981
  24354 WAT        24.1590   14.3440   28.5910 O      24354 WAT       0.2127
  24355 WAT        24.1590   14.3440   28.8410 O      24355 WAT       0.1117
  24356 WAT        24.1590   14.5940   18.3410 O      24356 WAT       0.0726
  24357 WAT        24.1590   14.5940   18.5910 O      24357 WAT       0.0910
  24358 WAT        24.1590   14.5940   18.8410 O      24358 WAT       0.0855
  24359 WAT        24.1590   14.5940   19.0910 O      24359 WAT       0.0621
  24360 WAT        24.1590   14.5940   27.5910 O      24360 WAT       0.1019
  24361 WAT        24.1590   14.5940   27.8410 O      24361 WAT       0.2125
  24362 WAT        24.1590   14.5940   28.0910 O      24362 WAT       0.3012
  24363 WAT        24.1590   14.5940   28.3410 O      24363 WAT       0.3016
  24364 WAT        24.1590   14.5940   28.5910 O      24364 WAT       0.2217
  24365 WAT        24.1590   14.5940   28.8410 O      24365 WAT       0.1221
  24366 WAT        24.1590   14.5940   29.0910 O      24366 WAT       0.0502
  24367 WAT        24.1590   14.8440   18.3410 O      24367 WAT       0.0510
  24368 WAT        24.1590   14.8440   18.5910 O      24368 WAT       0.0649
  24369 WAT        24.1590   14.8440   18.8410 O      24369 WAT       0.0605
  24370 WAT        24.1590   14.8440   27.5910 O      24370 WAT       0.0798
  24371 WAT        24.1590   14.8440   27.8410 O      24371 WAT       0.1631
  24372 WAT        24.1590   14.8440   28.0910 O      24372 WAT       0.2290
  24373 WAT        24.1590   14.8440   28.3410 O      24373 WAT       0.2303
  24374 WAT        24.1590   14.8440   28.5910 O      24374 WAT       0.1729
  24375 WAT        24.1590   14.8440   28.8410 O      24375 WAT       0.0987
  24376 WAT        24.1590   15.0940   27.5910 O      24376 WAT       0.0484
  24377 WAT        24.1590   15.0940   27.8410 O      24377 WAT       0.0952
  24378 WAT        24.1590   15.0940   28.0910 O      24378 WAT       0.1312
  24379 WAT        24.1590   15.0940   28.3410 O      24379 WAT       0.1317
  24380 WAT        24.1590   15.0940   28.5910 O      24380 WAT       0.1002
  24381 WAT        24.1590   15.0940   28.8410 O      24381 WAT       0.0587
  24382 WAT        24.1590   15.3440   28.0910 O      24382 WAT       0.0565
  24383 WAT        24.1590   15.3440   28.3410 O      24383 WAT       0.0559
  24384 WAT        24.1590   16.0940    9.8410 O      24384 WAT       0.0512
  24385 WAT        24.1590   16.0940   10.0910 O      24385 WAT       0.0595
  24386 WAT        24.1590   16.0940   10.3410 O      24386 WAT       0.0560
  24387 WAT        24.1590   16.0940   26.5910 O      24387 WAT       0.0581
  24388 WAT        24.1590   16.0940   26.8410 O      24388 WAT       0.0569
  24389 WAT        24.1590   16.3440    9.8410 O      24389 WAT       0.0628
  24390 WAT        24.1590   16.3440   10.0910 O      24390 WAT       0.0755
  24391 WAT        24.1590   16.3440   10.3410 O      24391 WAT       0.0711
  24392 WAT        24.1590   16.3440   10.5910 O      24392 WAT       0.0519
  24393 WAT        24.1590   16.3440   26.5910 O      24393 WAT       0.0537
  24394 WAT        24.1590   16.3440   26.8410 O      24394 WAT       0.0538
  24395 WAT        24.1590   16.5940    9.8410 O      24395 WAT       0.0576
  24396 WAT        24.1590   16.5940   10.0910 O      24396 WAT       0.0699
  24397 WAT        24.1590   16.5940   10.3410 O      24397 WAT       0.0653
  24398 WAT        24.1590   16.5940   10.5910 O      24398 WAT       0.0465
  24399 WAT        24.1590   17.0940    5.5910 O      24399 WAT       0.0450
  24400 WAT        24.1590   17.0940    5.8410 O      24400 WAT       0.0527
  24401 WAT        24.1590   17.0940    6.0910 O      24401 WAT       0.0582
  24402 WAT        24.1590   17.0940    6.3410 O      24402 WAT       0.0606
  24403 WAT        24.1590   17.0940    6.5910 O      24403 WAT       0.0590
  24404 WAT        24.1590   17.0940    6.8410 O      24404 WAT       0.0527
  24405 WAT        24.1590   17.3440    5.3410 O      24405 WAT       0.0537
  24406 WAT        24.1590   17.3440    5.5910 O      24406 WAT       0.0659
  24407 WAT        24.1590   17.3440    5.8410 O      24407 WAT       0.0764
  24408 WAT        24.1590   17.3440    6.0910 O      24408 WAT       0.0823
  24409 WAT        24.1590   17.3440    6.3410 O      24409 WAT       0.0818
  24410 WAT        24.1590   17.3440    6.5910 O      24410 WAT       0.0743
  24411 WAT        24.1590   17.3440    6.8410 O      24411 WAT       0.0603
  24412 WAT        24.1590   17.3440   19.0910 O      24412 WAT       0.0556
  24413 WAT        24.1590   17.3440   19.3410 O      24413 WAT       0.0654
  24414 WAT        24.1590   17.3440   19.5910 O      24414 WAT       0.0567
  24415 WAT        24.1590   17.5940    3.0910 O      24415 WAT       0.0477
  24416 WAT        24.1590   17.5940    3.3410 O      24416 WAT       0.0473
  24417 WAT        24.1590   17.5940    5.0910 O      24417 WAT       0.0529
  24418 WAT        24.1590   17.5940    5.3410 O      24418 WAT       0.0667
  24419 WAT        24.1590   17.5940    5.5910 O      24419 WAT       0.0810
  24420 WAT        24.1590   17.5940    5.8410 O      24420 WAT       0.0927
  24421 WAT        24.1590   17.5940    6.0910 O      24421 WAT       0.0976
  24422 WAT        24.1590   17.5940    6.3410 O      24422 WAT       0.0926
  24423 WAT        24.1590   17.5940    6.5910 O      24423 WAT       0.0782
  24424 WAT        24.1590   17.5940    6.8410 O      24424 WAT       0.0579
  24425 WAT        24.1590   17.5940   19.0910 O      24425 WAT       0.0689
  24426 WAT        24.1590   17.5940   19.3410 O      24426 WAT       0.0886
  24427 WAT        24.1590   17.5940   19.5910 O      24427 WAT       0.0829
  24428 WAT        24.1590   17.5940   19.8410 O      24428 WAT       0.0570
  24429 WAT        24.1590   17.8440    3.0910 O      24429 WAT       0.0467
  24430 WAT        24.1590   17.8440    5.0910 O      24430 WAT       0.0535
  24431 WAT        24.1590   17.8440    5.3410 O      24431 WAT       0.0671
  24432 WAT        24.1590   17.8440    5.5910 O      24432 WAT       0.0813
  24433 WAT        24.1590   17.8440    5.8410 O      24433 WAT       0.0929
  24434 WAT        24.1590   17.8440    6.0910 O      24434 WAT       0.0961
  24435 WAT        24.1590   17.8440    6.3410 O      24435 WAT       0.0877
  24436 WAT        24.1590   17.8440    6.5910 O      24436 WAT       0.0692
  24437 WAT        24.1590   17.8440    6.8410 O      24437 WAT       0.0466
  24438 WAT        24.1590   17.8440   19.0910 O      24438 WAT       0.0641
  24439 WAT        24.1590   17.8440   19.3410 O      24439 WAT       0.0900
  24440 WAT        24.1590   17.8440   19.5910 O      24440 WAT       0.0909
  24441 WAT        24.1590   17.8440   19.8410 O      24441 WAT       0.0659
  24442 WAT        24.1590   18.0940    5.3410 O      24442 WAT       0.0533
  24443 WAT        24.1590   18.0940    5.5910 O      24443 WAT       0.0658
  24444 WAT        24.1590   18.0940    5.8410 O      24444 WAT       0.0761
  24445 WAT        24.1590   18.0940    6.0910 O      24445 WAT       0.0785
  24446 WAT        24.1590   18.0940    6.3410 O      24446 WAT       0.0696
  24447 WAT        24.1590   18.0940    6.5910 O      24447 WAT       0.0518
  24448 WAT        24.1590   18.0940   19.3410 O      24448 WAT       0.0679
  24449 WAT        24.1590   18.0940   19.5910 O      24449 WAT       0.0736
  24450 WAT        24.1590   18.0940   19.8410 O      24450 WAT       0.0562
  24451 WAT        24.1590   18.3440    5.8410 O      24451 WAT       0.0510
  24452 WAT        24.1590   18.3440    6.0910 O      24452 WAT       0.0531
  24453 WAT        24.1590   18.3440    6.3410 O      24453 WAT       0.0464
  24454 WAT        24.1590   23.0940   19.5910 O      24454 WAT       0.0467
  24455 WAT        24.1590   23.0940   19.8410 O      24455 WAT       0.0535
  24456 WAT        24.1590   23.0940   29.3410 O      24456 WAT       0.0463
  24457 WAT        24.1590   23.3440   19.5910 O      24457 WAT       0.0751
  24458 WAT        24.1590   23.3440   19.8410 O      24458 WAT       0.0907
  24459 WAT        24.1590   23.3440   20.0910 O      24459 WAT       0.0743
  24460 WAT        24.1590   23.5940   19.3410 O      24460 WAT       0.0520
  24461 WAT        24.1590   23.5940   19.5910 O      24461 WAT       0.0971
  24462 WAT        24.1590   23.5940   19.8410 O      24462 WAT       0.1215
  24463 WAT        24.1590   23.5940   20.0910 O      24463 WAT       0.1047
  24464 WAT        24.1590   23.5940   20.3410 O      24464 WAT       0.0653
  24465 WAT        24.1590   23.8440   19.3410 O      24465 WAT       0.0552
  24466 WAT        24.1590   23.8440   19.5910 O      24466 WAT       0.1032
  24467 WAT        24.1590   23.8440   19.8410 O      24467 WAT       0.1311
  24468 WAT        24.1590   23.8440   20.0910 O      24468 WAT       0.1169
  24469 WAT        24.1590   23.8440   20.3410 O      24469 WAT       0.0782
  24470 WAT        24.1590   24.0940   19.3410 O      24470 WAT       0.0510
  24471 WAT        24.1590   24.0940   19.5910 O      24471 WAT       0.0931
  24472 WAT        24.1590   24.0940   19.8410 O      24472 WAT       0.1171
  24473 WAT        24.1590   24.0940   20.0910 O      24473 WAT       0.1061
  24474 WAT        24.1590   24.0940   20.3410 O      24474 WAT       0.0754
  24475 WAT        24.1590   24.0940   20.5910 O      24475 WAT       0.0485
  24476 WAT        24.1590   24.3440   19.5910 O      24476 WAT       0.0738
  24477 WAT        24.1590   24.3440   19.8410 O      24477 WAT       0.0900
  24478 WAT        24.1590   24.3440   20.0910 O      24478 WAT       0.0816
  24479 WAT        24.1590   24.3440   20.3410 O      24479 WAT       0.0609
  24480 WAT        24.1590   24.5940   19.5910 O      24480 WAT       0.0541
  24481 WAT        24.1590   24.5940   19.8410 O      24481 WAT       0.0626
  24482 WAT        24.1590   24.5940   20.0910 O      24482 WAT       0.0562
  24483 WAT        24.1590   25.0940    2.5910 O      24483 WAT       0.0633
  24484 WAT        24.1590   25.0940   22.8410 O      24484 WAT       0.0468
  24485 WAT        24.1590   25.3440    2.5910 O      24485 WAT       0.0718
  24486 WAT        24.1590   25.3440   22.3410 O      24486 WAT       0.0514
  24487 WAT        24.1590   25.3440   22.5910 O      24487 WAT       0.0678
  24488 WAT        24.1590   25.3440   22.8410 O      24488 WAT       0.0815
  24489 WAT        24.1590   25.3440   23.0910 O      24489 WAT       0.0839
  24490 WAT        24.1590   25.3440   23.3410 O      24490 WAT       0.0716
  24491 WAT        24.1590   25.3440   23.5910 O      24491 WAT       0.0512
  24492 WAT        24.1590   25.5940    2.5910 O      24492 WAT       0.0537
  24493 WAT        24.1590   25.5940   22.0910 O      24493 WAT       0.0500
  24494 WAT        24.1590   25.5940   22.3410 O      24494 WAT       0.0721
  24495 WAT        24.1590   25.5940   22.5910 O      24495 WAT       0.0972
  24496 WAT        24.1590   25.5940   22.8410 O      24496 WAT       0.1168
  24497 WAT        24.1590   25.5940   23.0910 O      24497 WAT       0.1193
  24498 WAT        24.1590   25.5940   23.3410 O      24498 WAT       0.1014
  24499 WAT        24.1590   25.5940   23.5910 O      24499 WAT       0.0729
  24500 WAT        24.1590   25.5940   23.8410 O      24500 WAT       0.0464
  24501 WAT        24.1590   25.8440   22.0910 O      24501 WAT       0.0637
  24502 WAT        24.1590   25.8440   22.3410 O      24502 WAT       0.0869
  24503 WAT        24.1590   25.8440   22.5910 O      24503 WAT       0.1092
  24504 WAT        24.1590   25.8440   22.8410 O      24504 WAT       0.1225
  24505 WAT        24.1590   25.8440   23.0910 O      24505 WAT       0.1185
  24506 WAT        24.1590   25.8440   23.3410 O      24506 WAT       0.0971
  24507 WAT        24.1590   25.8440   23.5910 O      24507 WAT       0.0687
  24508 WAT        24.1590   26.0940   22.0910 O      24508 WAT       0.0613
  24509 WAT        24.1590   26.0940   22.3410 O      24509 WAT       0.0775
  24510 WAT        24.1590   26.0940   22.5910 O      24510 WAT       0.0886
  24511 WAT        24.1590   26.0940   22.8410 O      24511 WAT       0.0904
  24512 WAT        24.1590   26.0940   23.0910 O      24512 WAT       0.0803
  24513 WAT        24.1590   26.0940   23.3410 O      24513 WAT       0.0618
  24514 WAT        24.1590   26.3440   22.3410 O      24514 WAT       0.0481
  24515 WAT        24.1590   26.3440   22.5910 O      24515 WAT       0.0500
  24516 WAT        24.1590   26.3440   22.8410 O      24516 WAT       0.0459
  24517 WAT        24.1590   26.5940   28.8410 O      24517 WAT       0.0533
  24518 WAT        24.1590   26.5940   29.0910 O      24518 WAT       0.0534
  24519 WAT        24.1590   26.8440   28.5910 O      24519 WAT       0.0518
  24520 WAT        24.1590   26.8440   28.8410 O      24520 WAT       0.0714
  24521 WAT        24.1590   26.8440   29.0910 O      24521 WAT       0.0728
  24522 WAT        24.1590   26.8440   29.3410 O      24522 WAT       0.0539
  24523 WAT        24.1590   27.0940   28.5910 O      24523 WAT       0.0538
  24524 WAT        24.1590   27.0940   28.8410 O      24524 WAT       0.0769
  24525 WAT        24.1590   27.0940   29.0910 O      24525 WAT       0.0806
  24526 WAT        24.1590   27.0940   29.3410 O      24526 WAT       0.0610
  24527 WAT        24.1590   27.3440   28.8410 O      24527 WAT       0.0656
  24528 WAT        24.1590   27.3440   29.0910 O      24528 WAT       0.0710
  24529 WAT        24.1590   27.3440   29.3410 O      24529 WAT       0.0552
  24530 WAT        24.1590   27.5940   29.0910 O      24530 WAT       0.0495
  24531 WAT        24.1590   27.8440   15.5910 O      24531 WAT       0.0599
  24532 WAT        24.1590   27.8440   15.8410 O      24532 WAT       0.0614
  24533 WAT        24.1590   27.8440   16.0910 O      24533 WAT       0.0488
  24534 WAT        24.1590   28.0940   15.0910 O      24534 WAT       0.0525
  24535 WAT        24.1590   28.0940   15.3410 O      24535 WAT       0.0989
  24536 WAT        24.1590   28.0940   15.5910 O      24536 WAT       0.1399
  24537 WAT        24.1590   28.0940   15.8410 O      24537 WAT       0.1534
  24538 WAT        24.1590   28.0940   16.0910 O      24538 WAT       0.1323
  24539 WAT        24.1590   28.0940   16.3410 O      24539 WAT       0.0900
  24540 WAT        24.1590   28.0940   16.5910 O      24540 WAT       0.0479
  24541 WAT        24.1590   28.0940   26.5910 O      24541 WAT       0.0572
  24542 WAT        24.1590   28.0940   26.8410 O      24542 WAT       0.0582
  24543 WAT        24.1590   28.3440   15.0910 O      24543 WAT       0.0750
  24544 WAT        24.1590   28.3440   15.3410 O      24544 WAT       0.1481
  24545 WAT        24.1590   28.3440   15.5910 O      24545 WAT       0.2233
  24546 WAT        24.1590   28.3440   15.8410 O      24546 WAT       0.2642
  24547 WAT        24.1590   28.3440   16.0910 O      24547 WAT       0.2486
  24548 WAT        24.1590   28.3440   16.3410 O      24548 WAT       0.1856
  24549 WAT        24.1590   28.3440   16.5910 O      24549 WAT       0.1092
  24550 WAT        24.1590   28.3440   16.8410 O      24550 WAT       0.0503
  24551 WAT        24.1590   28.3440   18.0910 O      24551 WAT       0.0520
  24552 WAT        24.1590   28.3440   18.3410 O      24552 WAT       0.0626
  24553 WAT        24.1590   28.3440   18.5910 O      24553 WAT       0.0543
  24554 WAT        24.1590   28.3440   26.3410 O      24554 WAT       0.0551
  24555 WAT        24.1590   28.3440   26.5910 O      24555 WAT       0.0890
  24556 WAT        24.1590   28.3440   26.8410 O      24556 WAT       0.0902
  24557 WAT        24.1590   28.3440   27.0910 O      24557 WAT       0.0579
  24558 WAT        24.1590   28.5940   15.0910 O      24558 WAT       0.0717
  24559 WAT        24.1590   28.5940   15.3410 O      24559 WAT       0.1503
  24560 WAT        24.1590   28.5940   15.5910 O      24560 WAT       0.2440
  24561 WAT        24.1590   28.5940   15.8410 O      24561 WAT       0.3148
  24562 WAT        24.1590   28.5940   16.0910 O      24562 WAT       0.3254
  24563 WAT        24.1590   28.5940   16.3410 O      24563 WAT       0.2682
  24564 WAT        24.1590   28.5940   16.5910 O      24564 WAT       0.1742
  24565 WAT        24.1590   28.5940   16.8410 O      24565 WAT       0.0881
  24566 WAT        24.1590   28.5940   18.0910 O      24566 WAT       0.0683
  24567 WAT        24.1590   28.5940   18.3410 O      24567 WAT       0.0795
  24568 WAT        24.1590   28.5940   18.5910 O      24568 WAT       0.0661
  24569 WAT        24.1590   28.5940   26.3410 O      24569 WAT       0.0717
  24570 WAT        24.1590   28.5940   26.5910 O      24570 WAT       0.1143
  24571 WAT        24.1590   28.5940   26.8410 O      24571 WAT       0.1144
  24572 WAT        24.1590   28.5940   27.0910 O      24572 WAT       0.0726
  24573 WAT        24.1590   28.8440   15.0910 O      24573 WAT       0.0460
  24574 WAT        24.1590   28.8440   15.3410 O      24574 WAT       0.1041
  24575 WAT        24.1590   28.8440   15.5910 O      24575 WAT       0.1840
  24576 WAT        24.1590   28.8440   15.8410 O      24576 WAT       0.2610
  24577 WAT        24.1590   28.8440   16.0910 O      24577 WAT       0.2987
  24578 WAT        24.1590   28.8440   16.3410 O      24578 WAT       0.2728
  24579 WAT        24.1590   28.8440   16.5910 O      24579 WAT       0.1951
  24580 WAT        24.1590   28.8440   16.8410 O      24580 WAT       0.1074
  24581 WAT        24.1590   28.8440   17.0910 O      24581 WAT       0.0457
  24582 WAT        24.1590   28.8440   18.0910 O      24582 WAT       0.0645
  24583 WAT        24.1590   28.8440   18.3410 O      24583 WAT       0.0724
  24584 WAT        24.1590   28.8440   18.5910 O      24584 WAT       0.0578
  24585 WAT        24.1590   28.8440   26.3410 O      24585 WAT       0.0749
  24586 WAT        24.1590   28.8440   26.5910 O      24586 WAT       0.1176
  24587 WAT        24.1590   28.8440   26.8410 O      24587 WAT       0.1159
  24588 WAT        24.1590   28.8440   27.0910 O      24588 WAT       0.0722
  24589 WAT        24.1590   29.0940   15.3410 O      24589 WAT       0.0494
  24590 WAT        24.1590   29.0940   15.5910 O      24590 WAT       0.0967
  24591 WAT        24.1590   29.0940   15.8410 O      24591 WAT       0.1522
  24592 WAT        24.1590   29.0940   16.0910 O      24592 WAT       0.1932
  24593 WAT        24.1590   29.0940   16.3410 O      24593 WAT       0.1948
  24594 WAT        24.1590   29.0940   16.5910 O      24594 WAT       0.1521
  24595 WAT        24.1590   29.0940   16.8410 O      24595 WAT       0.0901
  24596 WAT        24.1590   29.0940   18.3410 O      24596 WAT       0.0481
  24597 WAT        24.1590   29.0940   26.3410 O      24597 WAT       0.0623
  24598 WAT        24.1590   29.0940   26.5910 O      24598 WAT       0.0956
  24599 WAT        24.1590   29.0940   26.8410 O      24599 WAT       0.0922
  24600 WAT        24.1590   29.0940   27.0910 O      24600 WAT       0.0562
  24601 WAT        24.1590   29.3440   15.8410 O      24601 WAT       0.0623
  24602 WAT        24.1590   29.3440   16.0910 O      24602 WAT       0.0878
  24603 WAT        24.1590   29.3440   16.3410 O      24603 WAT       0.0968
  24604 WAT        24.1590   29.3440   16.5910 O      24604 WAT       0.0814
  24605 WAT        24.1590   29.3440   16.8410 O      24605 WAT       0.0514
  24606 WAT        24.1590   29.3440   26.5910 O      24606 WAT       0.0615
  24607 WAT        24.1590   29.3440   26.8410 O      24607 WAT       0.0576
  24608 WAT        24.1590   32.5940   21.3410 O      24608 WAT       0.0544
  24609 WAT        24.1590   32.5940   21.5910 O      24609 WAT       0.0654
  24610 WAT        24.1590   32.5940   21.8410 O      24610 WAT       0.0586
  24611 WAT        24.1590   32.8440   21.0910 O      24611 WAT       0.0510
  24612 WAT        24.1590   32.8440   21.3410 O      24612 WAT       0.0703
  24613 WAT        24.1590   32.8440   21.5910 O      24613 WAT       0.0786
  24614 WAT        24.1590   32.8440   21.8410 O      24614 WAT       0.0685
  24615 WAT        24.1590   32.8440   22.0910 O      24615 WAT       0.0469
  24616 WAT        24.1590   32.8440   26.5910 O      24616 WAT       0.0470
  24617 WAT        24.1590   32.8440   26.8410 O      24617 WAT       0.0506
  24618 WAT        24.1590   32.8440   27.0910 O      24618 WAT       0.0490
  24619 WAT        24.1590   33.0940   21.0910 O      24619 WAT       0.0588
  24620 WAT        24.1590   33.0940   21.3410 O      24620 WAT       0.0713
  24621 WAT        24.1590   33.0940   21.5910 O      24621 WAT       0.0731
  24622 WAT        24.1590   33.0940   21.8410 O      24622 WAT       0.0623
  24623 WAT        24.1590   33.0940   22.0910 O      24623 WAT       0.0459
  24624 WAT        24.1590   33.0940   26.5910 O      24624 WAT       0.0475
  24625 WAT        24.1590   33.0940   26.8410 O      24625 WAT       0.0523
  24626 WAT        24.1590   33.0940   27.0910 O      24626 WAT       0.0535
  24627 WAT        24.1590   33.0940   27.3410 O      24627 WAT       0.0501
  24628 WAT        24.1590   33.3440   21.0910 O      24628 WAT       0.0545
  24629 WAT        24.1590   33.3440   21.3410 O      24629 WAT       0.0586
  24630 WAT        24.1590   33.3440   21.5910 O      24630 WAT       0.0555
  24631 WAT        24.1590   33.3440   21.8410 O      24631 WAT       0.0479
  24632 WAT        24.1590   33.3440   26.8410 O      24632 WAT       0.0501
  24633 WAT        24.1590   33.3440   27.0910 O      24633 WAT       0.0548
  24634 WAT        24.1590   33.3440   27.3410 O      24634 WAT       0.0556
  24635 WAT        24.1590   33.3440   27.5910 O      24635 WAT       0.0516
  24636 WAT        24.1590   33.5940   26.8410 O      24636 WAT       0.0455
  24637 WAT        24.1590   33.5940   27.0910 O      24637 WAT       0.0533
  24638 WAT        24.1590   33.5940   27.3410 O      24638 WAT       0.0576
  24639 WAT        24.1590   33.5940   27.5910 O      24639 WAT       0.0570
  24640 WAT        24.1590   33.5940   27.8410 O      24640 WAT       0.0517
  24641 WAT        24.1590   33.8440   16.0910 O      24641 WAT       0.0586
  24642 WAT        24.1590   33.8440   16.3410 O      24642 WAT       0.0741
  24643 WAT        24.1590   33.8440   16.5910 O      24643 WAT       0.0643
  24644 WAT        24.1590   33.8440   22.5910 O      24644 WAT       0.0483
  24645 WAT        24.1590   33.8440   22.8410 O      24645 WAT       0.0488
  24646 WAT        24.1590   33.8440   23.0910 O      24646 WAT       0.0455
  24647 WAT        24.1590   33.8440   27.0910 O      24647 WAT       0.0489
  24648 WAT        24.1590   33.8440   27.3410 O      24648 WAT       0.0555
  24649 WAT        24.1590   33.8440   27.5910 O      24649 WAT       0.0576
  24650 WAT        24.1590   33.8440   27.8410 O      24650 WAT       0.0553
  24651 WAT        24.1590   33.8440   28.0910 O      24651 WAT       0.0496
  24652 WAT        24.1590   34.0940   15.8410 O      24652 WAT       0.0563
  24653 WAT        24.1590   34.0940   16.0910 O      24653 WAT       0.0920
  24654 WAT        24.1590   34.0940   16.3410 O      24654 WAT       0.1071
  24655 WAT        24.1590   34.0940   16.5910 O      24655 WAT       0.0872
  24656 WAT        24.1590   34.0940   16.8410 O      24656 WAT       0.0494
  24657 WAT        24.1590   34.0940   22.3410 O      24657 WAT       0.0474
  24658 WAT        24.1590   34.0940   22.5910 O      24658 WAT       0.0503
  24659 WAT        24.1590   34.0940   22.8410 O      24659 WAT       0.0492
  24660 WAT        24.1590   34.0940   27.3410 O      24660 WAT       0.0501
  24661 WAT        24.1590   34.0940   27.5910 O      24661 WAT       0.0539
  24662 WAT        24.1590   34.0940   27.8410 O      24662 WAT       0.0542
  24663 WAT        24.1590   34.0940   28.0910 O      24663 WAT       0.0513
  24664 WAT        24.1590   34.0940   28.3410 O      24664 WAT       0.0452
  24665 WAT        24.1590   34.3440   15.8410 O      24665 WAT       0.0788
  24666 WAT        24.1590   34.3440   16.0910 O      24666 WAT       0.1150
  24667 WAT        24.1590   34.3440   16.3410 O      24667 WAT       0.1225
  24668 WAT        24.1590   34.3440   16.5910 O      24668 WAT       0.0934
  24669 WAT        24.1590   34.3440   16.8410 O      24669 WAT       0.0507
  24670 WAT        24.1590   34.3440   22.3410 O      24670 WAT       0.0484
  24671 WAT        24.1590   34.3440   22.5910 O      24671 WAT       0.0495
  24672 WAT        24.1590   34.3440   22.8410 O      24672 WAT       0.0467
  24673 WAT        24.1590   34.3440   27.5910 O      24673 WAT       0.0483
  24674 WAT        24.1590   34.3440   27.8410 O      24674 WAT       0.0500
  24675 WAT        24.1590   34.3440   28.0910 O      24675 WAT       0.0489
  24676 WAT        24.1590   34.5940   15.5910 O      24676 WAT       0.0522
  24677 WAT        24.1590   34.5940   15.8410 O      24677 WAT       0.0877
  24678 WAT        24.1590   34.5940   16.0910 O      24678 WAT       0.1134
  24679 WAT        24.1590   34.5940   16.3410 O      24679 WAT       0.1097
  24680 WAT        24.1590   34.5940   16.5910 O      24680 WAT       0.0779
  24681 WAT        24.1590   34.5940   18.5910 O      24681 WAT       0.0467
  24682 WAT        24.1590   34.5940   18.8410 O      24682 WAT       0.0531
  24683 WAT        24.1590   34.5940   19.0910 O      24683 WAT       0.0543
  24684 WAT        24.1590   34.5940   19.3410 O      24684 WAT       0.0517
  24685 WAT        24.1590   34.5940   19.5910 O      24685 WAT       0.0474
  24686 WAT        24.1590   34.5940   22.3410 O      24686 WAT       0.0459
  24687 WAT        24.1590   34.5940   22.5910 O      24687 WAT       0.0456
  24688 WAT        24.1590   34.8440   15.5910 O      24688 WAT       0.0524
  24689 WAT        24.1590   34.8440   15.8410 O      24689 WAT       0.0766
  24690 WAT        24.1590   34.8440   16.0910 O      24690 WAT       0.0873
  24691 WAT        24.1590   34.8440   16.3410 O      24691 WAT       0.0763
  24692 WAT        24.1590   34.8440   16.5910 O      24692 WAT       0.0501
  24693 WAT        24.1590   34.8440   18.3410 O      24693 WAT       0.0497
  24694 WAT        24.1590   34.8440   18.5910 O      24694 WAT       0.0621
  24695 WAT        24.1590   34.8440   18.8410 O      24695 WAT       0.0685
  24696 WAT        24.1590   34.8440   19.0910 O      24696 WAT       0.0680
  24697 WAT        24.1590   34.8440   19.3410 O      24697 WAT       0.0629
  24698 WAT        24.1590   34.8440   19.5910 O      24698 WAT       0.0560
  24699 WAT        24.1590   34.8440   19.8410 O      24699 WAT       0.0488
  24700 WAT        24.1590   35.0940   15.8410 O      24700 WAT       0.0511
  24701 WAT        24.1590   35.0940   16.0910 O      24701 WAT       0.0517
  24702 WAT        24.1590   35.0940   18.3410 O      24702 WAT       0.0500
  24703 WAT        24.1590   35.0940   18.5910 O      24703 WAT       0.0609
  24704 WAT        24.1590   35.0940   18.8410 O      24704 WAT       0.0652
  24705 WAT        24.1590   35.0940   19.0910 O      24705 WAT       0.0631
  24706 WAT        24.1590   35.0940   19.3410 O      24706 WAT       0.0572
  24707 WAT        24.1590   35.0940   19.5910 O      24707 WAT       0.0500
  24708 WAT        24.4090    8.3440   28.8410 O      24708 WAT       0.0497
  24709 WAT        24.4090    8.3440   29.0910 O      24709 WAT       0.0609
  24710 WAT        24.4090    8.3440   29.3410 O      24710 WAT       0.0571
  24711 WAT        24.4090    8.5940   29.0910 O      24711 WAT       0.0481
  24712 WAT        24.4090    8.8440   24.0910 O      24712 WAT       0.0453
  24713 WAT        24.4090    8.8440   24.3410 O      24713 WAT       0.0465
  24714 WAT        24.4090   10.0940   26.3410 O      24714 WAT       0.0460
  24715 WAT        24.4090   10.0940   26.5910 O      24715 WAT       0.0487
  24716 WAT        24.4090   10.3440   19.8410 O      24716 WAT       0.0461
  24717 WAT        24.4090   10.3440   20.0910 O      24717 WAT       0.0452
  24718 WAT        24.4090   10.3440   26.3410 O      24718 WAT       0.0453
  24719 WAT        24.4090   10.3440   26.5910 O      24719 WAT       0.0527
  24720 WAT        24.4090   10.3440   26.8410 O      24720 WAT       0.0501
  24721 WAT        24.4090   10.5940   19.8410 O      24721 WAT       0.0484
  24722 WAT        24.4090   10.5940   20.0910 O      24722 WAT       0.0470
  24723 WAT        24.4090   10.5940   26.5910 O      24723 WAT       0.0522
  24724 WAT        24.4090   10.5940   26.8410 O      24724 WAT       0.0558
  24725 WAT        24.4090   10.5940   27.0910 O      24725 WAT       0.0484
  24726 WAT        24.4090   10.8440   19.8410 O      24726 WAT       0.0480
  24727 WAT        24.4090   10.8440   20.0910 O      24727 WAT       0.0464
  24728 WAT        24.4090   10.8440   26.5910 O      24728 WAT       0.0499
  24729 WAT        24.4090   10.8440   26.8410 O      24729 WAT       0.0634
  24730 WAT        24.4090   10.8440   27.0910 O      24730 WAT       0.0642
  24731 WAT        24.4090   10.8440   27.3410 O      24731 WAT       0.0517
  24732 WAT        24.4090   11.0940   19.8410 O      24732 WAT       0.0452
  24733 WAT        24.4090   11.0940   26.5910 O      24733 WAT       0.0500
  24734 WAT        24.4090   11.0940   26.8410 O      24734 WAT       0.0784
  24735 WAT        24.4090   11.0940   27.0910 O      24735 WAT       0.0938
  24736 WAT        24.4090   11.0940   27.3410 O      24736 WAT       0.0848
  24737 WAT        24.4090   11.0940   27.5910 O      24737 WAT       0.0572
  24738 WAT        24.4090   11.3440   17.3410 O      24738 WAT       0.0467
  24739 WAT        24.4090   11.3440   26.5910 O      24739 WAT       0.0543
  24740 WAT        24.4090   11.3440   26.8410 O      24740 WAT       0.1019
  24741 WAT        24.4090   11.3440   27.0910 O      24741 WAT       0.1394
  24742 WAT        24.4090   11.3440   27.3410 O      24742 WAT       0.1379
  24743 WAT        24.4090   11.3440   27.5910 O      24743 WAT       0.0977
  24744 WAT        24.4090   11.3440   27.8410 O      24744 WAT       0.0488
  24745 WAT        24.4090   11.5940   16.8410 O      24745 WAT       0.0519
  24746 WAT        24.4090   11.5940   17.0910 O      24746 WAT       0.0598
  24747 WAT        24.4090   11.5940   17.3410 O      24747 WAT       0.0620
  24748 WAT        24.4090   11.5940   17.5910 O      24748 WAT       0.0570
  24749 WAT        24.4090   11.5940   17.8410 O      24749 WAT       0.0467
  24750 WAT        24.4090   11.5940   26.5910 O      24750 WAT       0.0589
  24751 WAT        24.4090   11.5940   26.8410 O      24751 WAT       0.1256
  24752 WAT        24.4090   11.5940   27.0910 O      24752 WAT       0.1881
  24753 WAT        24.4090   11.5940   27.3410 O      24753 WAT       0.1979
  24754 WAT        24.4090   11.5940   27.5910 O      24754 WAT       0.1455
  24755 WAT        24.4090   11.5940   27.8410 O      24755 WAT       0.0740
  24756 WAT        24.4090   11.8440   16.5910 O      24756 WAT       0.0548
  24757 WAT        24.4090   11.8440   16.8410 O      24757 WAT       0.0680
  24758 WAT        24.4090   11.8440   17.0910 O      24758 WAT       0.0768
  24759 WAT        24.4090   11.8440   17.3410 O      24759 WAT       0.0776
  24760 WAT        24.4090   11.8440   17.5910 O      24760 WAT       0.0694
  24761 WAT        24.4090   11.8440   17.8410 O      24761 WAT       0.0551
  24762 WAT        24.4090   11.8440   26.5910 O      24762 WAT       0.0568
  24763 WAT        24.4090   11.8440   26.8410 O      24763 WAT       0.1322
  24764 WAT        24.4090   11.8440   27.0910 O      24764 WAT       0.2115
  24765 WAT        24.4090   11.8440   27.3410 O      24765 WAT       0.2337
  24766 WAT        24.4090   11.8440   27.5910 O      24766 WAT       0.1775
  24767 WAT        24.4090   11.8440   27.8410 O      24767 WAT       0.0921
  24768 WAT        24.4090   12.0940   16.3410 O      24768 WAT       0.0527
  24769 WAT        24.4090   12.0940   16.5910 O      24769 WAT       0.0682
  24770 WAT        24.4090   12.0940   16.8410 O      24770 WAT       0.0825
  24771 WAT        24.4090   12.0940   17.0910 O      24771 WAT       0.0902
  24772 WAT        24.4090   12.0940   17.3410 O      24772 WAT       0.0882
  24773 WAT        24.4090   12.0940   17.5910 O      24773 WAT       0.0764
  24774 WAT        24.4090   12.0940   17.8410 O      24774 WAT       0.0590
  24775 WAT        24.4090   12.0940   26.8410 O      24775 WAT       0.1118
  24776 WAT        24.4090   12.0940   27.0910 O      24776 WAT       0.1894
  24777 WAT        24.4090   12.0940   27.3410 O      24777 WAT       0.2186
  24778 WAT        24.4090   12.0940   27.5910 O      24778 WAT       0.1716
  24779 WAT        24.4090   12.0940   27.8410 O      24779 WAT       0.0912
  24780 WAT        24.4090   12.3440   16.0910 O      24780 WAT       0.0482
  24781 WAT        24.4090   12.3440   16.3410 O      24781 WAT       0.0613
  24782 WAT        24.4090   12.3440   16.5910 O      24782 WAT       0.0767
  24783 WAT        24.4090   12.3440   16.8410 O      24783 WAT       0.0898
  24784 WAT        24.4090   12.3440   17.0910 O      24784 WAT       0.0952
  24785 WAT        24.4090   12.3440   17.3410 O      24785 WAT       0.0902
  24786 WAT        24.4090   12.3440   17.5910 O      24786 WAT       0.0762
  24787 WAT        24.4090   12.3440   17.8410 O      24787 WAT       0.0579
  24788 WAT        24.4090   12.3440   26.8410 O      24788 WAT       0.0737
  24789 WAT        24.4090   12.3440   27.0910 O      24789 WAT       0.1318
  24790 WAT        24.4090   12.3440   27.3410 O      24790 WAT       0.1589
  24791 WAT        24.4090   12.3440   27.5910 O      24791 WAT       0.1292
  24792 WAT        24.4090   12.3440   27.8410 O      24792 WAT       0.0705
  24793 WAT        24.4090   12.5940   16.0910 O      24793 WAT       0.0483
  24794 WAT        24.4090   12.5940   16.3410 O      24794 WAT       0.0612
  24795 WAT        24.4090   12.5940   16.5910 O      24795 WAT       0.0753
  24796 WAT        24.4090   12.5940   16.8410 O      24796 WAT       0.0865
  24797 WAT        24.4090   12.5940   17.0910 O      24797 WAT       0.0898
  24798 WAT        24.4090   12.5940   17.3410 O      24798 WAT       0.0833
  24799 WAT        24.4090   12.5940   17.5910 O      24799 WAT       0.0696
  24800 WAT        24.4090   12.5940   17.8410 O      24800 WAT       0.0529
  24801 WAT        24.4090   12.5940   27.0910 O      24801 WAT       0.0704
  24802 WAT        24.4090   12.5940   27.3410 O      24802 WAT       0.0889
  24803 WAT        24.4090   12.5940   27.5910 O      24803 WAT       0.0753
  24804 WAT        24.4090   12.8440   16.3410 O      24804 WAT       0.0500
  24805 WAT        24.4090   12.8440   16.5910 O      24805 WAT       0.0625
  24806 WAT        24.4090   12.8440   16.8410 O      24806 WAT       0.0723
  24807 WAT        24.4090   12.8440   17.0910 O      24807 WAT       0.0750
  24808 WAT        24.4090   12.8440   17.3410 O      24808 WAT       0.0695
  24809 WAT        24.4090   12.8440   17.5910 O      24809 WAT       0.0585
  24810 WAT        24.4090   12.8440   17.8410 O      24810 WAT       0.0460
  24811 WAT        24.4090   12.8440   19.3410 O      24811 WAT       0.0459
  24812 WAT        24.4090   12.8440   19.5910 O      24812 WAT       0.0491
  24813 WAT        24.4090   12.8440   19.8410 O      24813 WAT       0.0490
  24814 WAT        24.4090   13.0940   16.8410 O      24814 WAT       0.0508
  24815 WAT        24.4090   13.0940   17.0910 O      24815 WAT       0.0543
  24816 WAT        24.4090   13.0940   17.3410 O      24816 WAT       0.0518
  24817 WAT        24.4090   13.0940   17.5910 O      24817 WAT       0.0456
  24818 WAT        24.4090   13.0940   18.8410 O      24818 WAT       0.0518
  24819 WAT        24.4090   13.0940   19.0910 O      24819 WAT       0.0607
  24820 WAT        24.4090   13.0940   19.3410 O      24820 WAT       0.0664
  24821 WAT        24.4090   13.0940   19.5910 O      24821 WAT       0.0673
  24822 WAT        24.4090   13.0940   19.8410 O      24822 WAT       0.0625
  24823 WAT        24.4090   13.0940   20.0910 O      24823 WAT       0.0510
  24824 WAT        24.4090   13.3440   18.3410 O      24824 WAT       0.0481
  24825 WAT        24.4090   13.3440   18.5910 O      24825 WAT       0.0613
  24826 WAT        24.4090   13.3440   18.8410 O      24826 WAT       0.0746
  24827 WAT        24.4090   13.3440   19.0910 O      24827 WAT       0.0840
  24828 WAT        24.4090   13.3440   19.3410 O      24828 WAT       0.0871
  24829 WAT        24.4090   13.3440   19.5910 O      24829 WAT       0.0830
  24830 WAT        24.4090   13.3440   19.8410 O      24830 WAT       0.0722
  24831 WAT        24.4090   13.3440   20.0910 O      24831 WAT       0.0557
  24832 WAT        24.4090   13.5940   18.0910 O      24832 WAT       0.0459
  24833 WAT        24.4090   13.5940   18.3410 O      24833 WAT       0.0650
  24834 WAT        24.4090   13.5940   18.5910 O      24834 WAT       0.0850
  24835 WAT        24.4090   13.5940   18.8410 O      24835 WAT       0.0996
  24836 WAT        24.4090   13.5940   19.0910 O      24836 WAT       0.1046
  24837 WAT        24.4090   13.5940   19.3410 O      24837 WAT       0.1003
  24838 WAT        24.4090   13.5940   19.5910 O      24838 WAT       0.0885
  24839 WAT        24.4090   13.5940   19.8410 O      24839 WAT       0.0720
  24840 WAT        24.4090   13.5940   20.0910 O      24840 WAT       0.0530
  24841 WAT        24.4090   13.5940   28.0910 O      24841 WAT       0.0547
  24842 WAT        24.4090   13.5940   28.3410 O      24842 WAT       0.0537
  24843 WAT        24.4090   13.8440   18.0910 O      24843 WAT       0.0549
  24844 WAT        24.4090   13.8440   18.3410 O      24844 WAT       0.0836
  24845 WAT        24.4090   13.8440   18.5910 O      24845 WAT       0.1085
  24846 WAT        24.4090   13.8440   18.8410 O      24846 WAT       0.1200
  24847 WAT        24.4090   13.8440   19.0910 O      24847 WAT       0.1158
  24848 WAT        24.4090   13.8440   19.3410 O      24848 WAT       0.1006
  24849 WAT        24.4090   13.8440   19.5910 O      24849 WAT       0.0808
  24850 WAT        24.4090   13.8440   19.8410 O      24850 WAT       0.0608
  24851 WAT        24.4090   13.8440   27.8410 O      24851 WAT       0.0757
  24852 WAT        24.4090   13.8440   28.0910 O      24852 WAT       0.1150
  24853 WAT        24.4090   13.8440   28.3410 O      24853 WAT       0.1226
  24854 WAT        24.4090   13.8440   28.5910 O      24854 WAT       0.0931
  24855 WAT        24.4090   13.8440   28.8410 O      24855 WAT       0.0505
  24856 WAT        24.4090   14.0940   18.0910 O      24856 WAT       0.0611
  24857 WAT        24.4090   14.0940   18.3410 O      24857 WAT       0.0969
  24858 WAT        24.4090   14.0940   18.5910 O      24858 WAT       0.1236
  24859 WAT        24.4090   14.0940   18.8410 O      24859 WAT       0.1288
  24860 WAT        24.4090   14.0940   19.0910 O      24860 WAT       0.1136
  24861 WAT        24.4090   14.0940   19.3410 O      24861 WAT       0.0885
  24862 WAT        24.4090   14.0940   19.5910 O      24862 WAT       0.0636
  24863 WAT        24.4090   14.0940   27.5910 O      24863 WAT       0.0519
  24864 WAT        24.4090   14.0940   27.8410 O      24864 WAT       0.1193
  24865 WAT        24.4090   14.0940   28.0910 O      24865 WAT       0.1895
  24866 WAT        24.4090   14.0940   28.3410 O      24866 WAT       0.2143
  24867 WAT        24.4090   14.0940   28.5910 O      24867 WAT       0.1749
  24868 WAT        24.4090   14.0940   28.8410 O      24868 WAT       0.1036
  24869 WAT        24.4090   14.3440   18.0910 O      24869 WAT       0.0601
  24870 WAT        24.4090   14.3440   18.3410 O      24870 WAT       0.0978
  24871 WAT        24.4090   14.3440   18.5910 O      24871 WAT       0.1233
  24872 WAT        24.4090   14.3440   18.8410 O      24872 WAT       0.1226
  24873 WAT        24.4090   14.3440   19.0910 O      24873 WAT       0.0997
  24874 WAT        24.4090   14.3440   19.3410 O      24874 WAT       0.0696
  24875 WAT        24.4090   14.3440   27.5910 O      24875 WAT       0.0643
  24876 WAT        24.4090   14.3440   27.8410 O      24876 WAT       0.1488
  24877 WAT        24.4090   14.3440   28.0910 O      24877 WAT       0.2417
  24878 WAT        24.4090   14.3440   28.3410 O      24878 WAT       0.2844
  24879 WAT        24.4090   14.3440   28.5910 O      24879 WAT       0.2457
  24880 WAT        24.4090   14.3440   28.8410 O      24880 WAT       0.1561
  24881 WAT        24.4090   14.3440   29.0910 O      24881 WAT       0.0728
  24882 WAT        24.4090   14.5940   18.0910 O      24882 WAT       0.0510
  24883 WAT        24.4090   14.5940   18.3410 O      24883 WAT       0.0854
  24884 WAT        24.4090   14.5940   18.5910 O      24884 WAT       0.1075
  24885 WAT        24.4090   14.5940   18.8410 O      24885 WAT       0.1037
  24886 WAT        24.4090   14.5940   19.0910 O      24886 WAT       0.0795
  24887 WAT        24.4090   14.5940   19.3410 O      24887 WAT       0.0506
  24888 WAT        24.4090   14.5940   27.5910 O      24888 WAT       0.0634
  24889 WAT        24.4090   14.5940   27.8410 O      24889 WAT       0.1455
  24890 WAT        24.4090   14.5940   28.0910 O      24890 WAT       0.2379
  24891 WAT        24.4090   14.5940   28.3410 O      24891 WAT       0.2867
  24892 WAT        24.4090   14.5940   28.5910 O      24892 WAT       0.2582
  24893 WAT        24.4090   14.5940   28.8410 O      24893 WAT       0.1733
  24894 WAT        24.4090   14.5940   29.0910 O      24894 WAT       0.0864
  24895 WAT        24.4090   14.8440   18.3410 O      24895 WAT       0.0652
  24896 WAT        24.4090   14.8440   18.5910 O      24896 WAT       0.0833
  24897 WAT        24.4090   14.8440   18.8410 O      24897 WAT       0.0798
  24898 WAT        24.4090   14.8440   19.0910 O      24898 WAT       0.0592
  24899 WAT        24.4090   14.8440   27.5910 O      24899 WAT       0.0492
  24900 WAT        24.4090   14.8440   27.8410 O      24900 WAT       0.1108
  24901 WAT        24.4090   14.8440   28.0910 O      24901 WAT       0.1801
  24902 WAT        24.4090   14.8440   28.3410 O      24902 WAT       0.2196
  24903 WAT        24.4090   14.8440   28.5910 O      24903 WAT       0.2034
  24904 WAT        24.4090   14.8440   28.8410 O      24904 WAT       0.1424
  24905 WAT        24.4090   14.8440   29.0910 O      24905 WAT       0.0748
  24906 WAT        24.4090   15.0940   18.5910 O      24906 WAT       0.0594
  24907 WAT        24.4090   15.0940   18.8410 O      24907 WAT       0.0581
  24908 WAT        24.4090   15.0940   27.8410 O      24908 WAT       0.0654
  24909 WAT        24.4090   15.0940   28.0910 O      24909 WAT       0.1045
  24910 WAT        24.4090   15.0940   28.3410 O      24910 WAT       0.1275
  24911 WAT        24.4090   15.0940   28.5910 O      24911 WAT       0.1202
  24912 WAT        24.4090   15.0940   28.8410 O      24912 WAT       0.0869
  24913 WAT        24.4090   15.0940   29.0910 O      24913 WAT       0.0475
  24914 WAT        24.4090   15.3440   28.0910 O      24914 WAT       0.0465
  24915 WAT        24.4090   15.3440   28.3410 O      24915 WAT       0.0559
  24916 WAT        24.4090   15.3440   28.5910 O      24916 WAT       0.0531
  24917 WAT        24.4090   15.8440   10.0910 O      24917 WAT       0.0539
  24918 WAT        24.4090   15.8440   10.3410 O      24918 WAT       0.0564
  24919 WAT        24.4090   15.8440   10.5910 O      24919 WAT       0.0493
  24920 WAT        24.4090   15.8440   26.0910 O      24920 WAT       0.0491
  24921 WAT        24.4090   15.8440   26.3410 O      24921 WAT       0.0762
  24922 WAT        24.4090   15.8440   26.5910 O      24922 WAT       0.0881
  24923 WAT        24.4090   15.8440   26.8410 O      24923 WAT       0.0759
  24924 WAT        24.4090   15.8440   27.0910 O      24924 WAT       0.0493
  24925 WAT        24.4090   16.0940    9.5910 O      24925 WAT       0.0471
  24926 WAT        24.4090   16.0940    9.8410 O      24926 WAT       0.0707
  24927 WAT        24.4090   16.0940   10.0910 O      24927 WAT       0.0888
  24928 WAT        24.4090   16.0940   10.3410 O      24928 WAT       0.0905
  24929 WAT        24.4090   16.0940   10.5910 O      24929 WAT       0.0749
  24930 WAT        24.4090   16.0940   10.8410 O      24930 WAT       0.0520
  24931 WAT        24.4090   16.0940   26.0910 O      24931 WAT       0.0679
  24932 WAT        24.4090   16.0940   26.3410 O      24932 WAT       0.1090
  24933 WAT        24.4090   16.0940   26.5910 O      24933 WAT       0.1300
  24934 WAT        24.4090   16.0940   26.8410 O      24934 WAT       0.1148
  24935 WAT        24.4090   16.0940   27.0910 O      24935 WAT       0.0750
  24936 WAT        24.4090   16.3440    9.5910 O      24936 WAT       0.0610
  24937 WAT        24.4090   16.3440    9.8410 O      24937 WAT       0.0917
  24938 WAT        24.4090   16.3440   10.0910 O      24938 WAT       0.1131
  24939 WAT        24.4090   16.3440   10.3410 O      24939 WAT       0.1112
  24940 WAT        24.4090   16.3440   10.5910 O      24940 WAT       0.0869
  24941 WAT        24.4090   16.3440   10.8410 O      24941 WAT       0.0556
  24942 WAT        24.4090   16.3440   26.0910 O      24942 WAT       0.0601
  24943 WAT        24.4090   16.3440   26.3410 O      24943 WAT       0.1008
  24944 WAT        24.4090   16.3440   26.5910 O      24944 WAT       0.1256
  24945 WAT        24.4090   16.3440   26.8410 O      24945 WAT       0.1154
  24946 WAT        24.4090   16.3440   27.0910 O      24946 WAT       0.0778
  24947 WAT        24.4090   16.5940    9.5910 O      24947 WAT       0.0576
  24948 WAT        24.4090   16.5940    9.8410 O      24948 WAT       0.0850
  24949 WAT        24.4090   16.5940   10.0910 O      24949 WAT       0.1023
  24950 WAT        24.4090   16.5940   10.3410 O      24950 WAT       0.0974
  24951 WAT        24.4090   16.5940   10.5910 O      24951 WAT       0.0726
  24952 WAT        24.4090   16.5940   26.3410 O      24952 WAT       0.0613
  24953 WAT        24.4090   16.5940   26.5910 O      24953 WAT       0.0809
  24954 WAT        24.4090   16.5940   26.8410 O      24954 WAT       0.0787
  24955 WAT        24.4090   16.5940   27.0910 O      24955 WAT       0.0559
  24956 WAT        24.4090   16.8440    9.8410 O      24956 WAT       0.0539
  24957 WAT        24.4090   16.8440   10.0910 O      24957 WAT       0.0633
  24958 WAT        24.4090   16.8440   10.3410 O      24958 WAT       0.0588
  24959 WAT        24.4090   17.0940    5.8410 O      24959 WAT       0.0488
  24960 WAT        24.4090   17.0940    6.0910 O      24960 WAT       0.0555
  24961 WAT        24.4090   17.0940    6.3410 O      24961 WAT       0.0602
  24962 WAT        24.4090   17.0940    6.5910 O      24962 WAT       0.0614
  24963 WAT        24.4090   17.0940    6.8410 O      24963 WAT       0.0577
  24964 WAT        24.4090   17.0940    7.0910 O      24964 WAT       0.0479
  24965 WAT        24.4090   17.0940   19.0910 O      24965 WAT       0.0547
  24966 WAT        24.4090   17.0940   19.3410 O      24966 WAT       0.0608
  24967 WAT        24.4090   17.0940   19.5910 O      24967 WAT       0.0522
  24968 WAT        24.4090   17.3440    5.3410 O      24968 WAT       0.0467
  24969 WAT        24.4090   17.3440    5.5910 O      24969 WAT       0.0564
  24970 WAT        24.4090   17.3440    5.8410 O      24970 WAT       0.0656
  24971 WAT        24.4090   17.3440    6.0910 O      24971 WAT       0.0727
  24972 WAT        24.4090   17.3440    6.3410 O      24972 WAT       0.0755
  24973 WAT        24.4090   17.3440    6.5910 O      24973 WAT       0.0724
  24974 WAT        24.4090   17.3440    6.8410 O      24974 WAT       0.0626
  24975 WAT        24.4090   17.3440    7.0910 O      24975 WAT       0.0472
  24976 WAT        24.4090   17.3440   18.8410 O      24976 WAT       0.0530
  24977 WAT        24.4090   17.3440   19.0910 O      24977 WAT       0.0847
  24978 WAT        24.4090   17.3440   19.3410 O      24978 WAT       0.0992
  24979 WAT        24.4090   17.3440   19.5910 O      24979 WAT       0.0881
  24980 WAT        24.4090   17.3440   19.8410 O      24980 WAT       0.0622
  24981 WAT        24.4090   17.5940    5.3410 O      24981 WAT       0.0544
  24982 WAT        24.4090   17.5940    5.5910 O      24982 WAT       0.0645
  24983 WAT        24.4090   17.5940    5.8410 O      24983 WAT       0.0735
  24984 WAT        24.4090   17.5940    6.0910 O      24984 WAT       0.0790
  24985 WAT        24.4090   17.5940    6.3410 O      24985 WAT       0.0782
  24986 WAT        24.4090   17.5940    6.5910 O      24986 WAT       0.0702
  24987 WAT        24.4090   17.5940    6.8410 O      24987 WAT       0.0559
  24988 WAT        24.4090   17.5940   18.8410 O      24988 WAT       0.0631
  24989 WAT        24.4090   17.5940   19.0910 O      24989 WAT       0.1080
  24990 WAT        24.4090   17.5940   19.3410 O      24990 WAT       0.1354
  24991 WAT        24.4090   17.5940   19.5910 O      24991 WAT       0.1262
  24992 WAT        24.4090   17.5940   19.8410 O      24992 WAT       0.0896
  24993 WAT        24.4090   17.5940   20.0910 O      24993 WAT       0.0521
  24994 WAT        24.4090   17.8440    5.3410 O      24994 WAT       0.0522
  24995 WAT        24.4090   17.8440    5.5910 O      24995 WAT       0.0612
  24996 WAT        24.4090   17.8440    5.8410 O      24996 WAT       0.0690
  24997 WAT        24.4090   17.8440    6.0910 O      24997 WAT       0.0723
  24998 WAT        24.4090   17.8440    6.3410 O      24998 WAT       0.0683
  24999 WAT        24.4090   17.8440    6.5910 O      24999 WAT       0.0573
  25000 WAT        24.4090   17.8440   18.8410 O      25000 WAT       0.0579
  25001 WAT        24.4090   17.8440   19.0910 O      25001 WAT       0.1065
  25002 WAT        24.4090   17.8440   19.3410 O      25002 WAT       0.1433
  25003 WAT        24.4090   17.8440   19.5910 O      25003 WAT       0.1413
  25004 WAT        24.4090   17.8440   19.8410 O      25004 WAT       0.1028
  25005 WAT        24.4090   17.8440   20.0910 O      25005 WAT       0.0576
  25006 WAT        24.4090   18.0940    5.5910 O      25006 WAT       0.0485
  25007 WAT        24.4090   18.0940    5.8410 O      25007 WAT       0.0550
  25008 WAT        24.4090   18.0940    6.0910 O      25008 WAT       0.0570
  25009 WAT        24.4090   18.0940    6.3410 O      25009 WAT       0.0520
  25010 WAT        24.4090   18.0940   19.0910 O      25010 WAT       0.0810
  25011 WAT        24.4090   18.0940   19.3410 O      25011 WAT       0.1160
  25012 WAT        24.4090   18.0940   19.5910 O      25012 WAT       0.1206
  25013 WAT        24.4090   18.0940   19.8410 O      25013 WAT       0.0904
  25014 WAT        24.4090   18.0940   20.0910 O      25014 WAT       0.0499
  25015 WAT        24.4090   18.3440   19.0910 O      25015 WAT       0.0496
  25016 WAT        24.4090   18.3440   19.3410 O      25016 WAT       0.0741
  25017 WAT        24.4090   18.3440   19.5910 O      25017 WAT       0.0799
  25018 WAT        24.4090   18.3440   19.8410 O      25018 WAT       0.0612
  25019 WAT        24.4090   23.0940   19.5910 O      25019 WAT       0.0546
  25020 WAT        24.4090   23.0940   19.8410 O      25020 WAT       0.0581
  25021 WAT        24.4090   23.3440   19.3410 O      25021 WAT       0.0456
  25022 WAT        24.4090   23.3440   19.5910 O      25022 WAT       0.0765
  25023 WAT        24.4090   23.3440   19.8410 O      25023 WAT       0.0865
  25024 WAT        24.4090   23.3440   20.0910 O      25024 WAT       0.0674
  25025 WAT        24.4090   23.5940   19.3410 O      25025 WAT       0.0519
  25026 WAT        24.4090   23.5940   19.5910 O      25026 WAT       0.0896
  25027 WAT        24.4090   23.5940   19.8410 O      25027 WAT       0.1056
  25028 WAT        24.4090   23.5940   20.0910 O      25028 WAT       0.0874
  25029 WAT        24.4090   23.5940   20.3410 O      25029 WAT       0.0535
  25030 WAT        24.4090   23.8440   19.3410 O      25030 WAT       0.0518
  25031 WAT        24.4090   23.8440   19.5910 O      25031 WAT       0.0899
  25032 WAT        24.4090   23.8440   19.8410 O      25032 WAT       0.1081
  25033 WAT        24.4090   23.8440   20.0910 O      25033 WAT       0.0934
  25034 WAT        24.4090   23.8440   20.3410 O      25034 WAT       0.0623
  25035 WAT        24.4090   24.0940   19.3410 O      25035 WAT       0.0468
  25036 WAT        24.4090   24.0940   19.5910 O      25036 WAT       0.0796
  25037 WAT        24.4090   24.0940   19.8410 O      25037 WAT       0.0953
  25038 WAT        24.4090   24.0940   20.0910 O      25038 WAT       0.0841
  25039 WAT        24.4090   24.0940   20.3410 O      25039 WAT       0.0603
  25040 WAT        24.4090   24.3440   19.5910 O      25040 WAT       0.0638
  25041 WAT        24.4090   24.3440   19.8410 O      25041 WAT       0.0744
  25042 WAT        24.4090   24.3440   20.0910 O      25042 WAT       0.0660
  25043 WAT        24.4090   24.3440   20.3410 O      25043 WAT       0.0500
  25044 WAT        24.4090   24.5940   19.5910 O      25044 WAT       0.0476
  25045 WAT        24.4090   24.5940   19.8410 O      25045 WAT       0.0531
  25046 WAT        24.4090   24.5940   20.0910 O      25046 WAT       0.0469
  25047 WAT        24.4090   25.3440   22.3410 O      25047 WAT       0.0472
  25048 WAT        24.4090   25.3440   22.5910 O      25048 WAT       0.0646
  25049 WAT        24.4090   25.3440   22.8410 O      25049 WAT       0.0807
  25050 WAT        24.4090   25.3440   23.0910 O      25050 WAT       0.0873
  25051 WAT        24.4090   25.3440   23.3410 O      25051 WAT       0.0801
  25052 WAT        24.4090   25.3440   23.5910 O      25052 WAT       0.0637
  25053 WAT        24.4090   25.3440   23.8410 O      25053 WAT       0.0461
  25054 WAT        24.4090   25.5940   22.0910 O      25054 WAT       0.0519
  25055 WAT        24.4090   25.5940   22.3410 O      25055 WAT       0.0772
  25056 WAT        24.4090   25.5940   22.5910 O      25056 WAT       0.1063
  25057 WAT        24.4090   25.5940   22.8410 O      25057 WAT       0.1299
  25058 WAT        24.4090   25.5940   23.0910 O      25058 WAT       0.1363
  25059 WAT        24.4090   25.5940   23.3410 O      25059 WAT       0.1223
  25060 WAT        24.4090   25.5940   23.5910 O      25060 WAT       0.0961
  25061 WAT        24.4090   25.5940   23.8410 O      25061 WAT       0.0695
  25062 WAT        24.4090   25.5940   24.0910 O      25062 WAT       0.0485
  25063 WAT        24.4090   25.8440   21.8410 O      25063 WAT       0.0497
  25064 WAT        24.4090   25.8440   22.0910 O      25064 WAT       0.0759
  25065 WAT        24.4090   25.8440   22.3410 O      25065 WAT       0.1072
  25066 WAT        24.4090   25.8440   22.5910 O      25066 WAT       0.1369
  25067 WAT        24.4090   25.8440   22.8410 O      25067 WAT       0.1542
  25068 WAT        24.4090   25.8440   23.0910 O      25068 WAT       0.1508
  25069 WAT        24.4090   25.8440   23.3410 O      25069 WAT       0.1284
  25070 WAT        24.4090   25.8440   23.5910 O      25070 WAT       0.0980
  25071 WAT        24.4090   25.8440   23.8410 O      25071 WAT       0.0704
  25072 WAT        24.4090   25.8440   24.0910 O      25072 WAT       0.0500
  25073 WAT        24.4090   26.0940   16.3410 O      25073 WAT       0.0458
  25074 WAT        24.4090   26.0940   21.8410 O      25074 WAT       0.0569
  25075 WAT        24.4090   26.0940   22.0910 O      25075 WAT       0.0830
  25076 WAT        24.4090   26.0940   22.3410 O      25076 WAT       0.1095
  25077 WAT        24.4090   26.0940   22.5910 O      25077 WAT       0.1279
  25078 WAT        24.4090   26.0940   22.8410 O      25078 WAT       0.1303
  25079 WAT        24.4090   26.0940   23.0910 O      25079 WAT       0.1159
  25080 WAT        24.4090   26.0940   23.3410 O      25080 WAT       0.0913
  25081 WAT        24.4090   26.0940   23.5910 O      25081 WAT       0.0662
  25082 WAT        24.4090   26.0940   23.8410 O      25082 WAT       0.0467
  25083 WAT        24.4090   26.3440   16.0910 O      25083 WAT       0.0532
  25084 WAT        24.4090   26.3440   16.3410 O      25084 WAT       0.0628
  25085 WAT        24.4090   26.3440   16.5910 O      25085 WAT       0.0541
  25086 WAT        24.4090   26.3440   22.0910 O      25086 WAT       0.0627
  25087 WAT        24.4090   26.3440   22.3410 O      25087 WAT       0.0778
  25088 WAT        24.4090   26.3440   22.5910 O      25088 WAT       0.0836
  25089 WAT        24.4090   26.3440   22.8410 O      25089 WAT       0.0770
  25090 WAT        24.4090   26.3440   23.0910 O      25090 WAT       0.0614
  25091 WAT        24.4090   26.5940   16.0910 O      25091 WAT       0.0495
  25092 WAT        24.4090   26.5940   16.3410 O      25092 WAT       0.0554
  25093 WAT        24.4090   26.5940   16.5910 O      25093 WAT       0.0454
  25094 WAT        24.4090   27.8440   15.5910 O      25094 WAT       0.0544
  25095 WAT        24.4090   27.8440   15.8410 O      25095 WAT       0.0541
  25096 WAT        24.4090   28.0940   15.0910 O      25096 WAT       0.0501
  25097 WAT        24.4090   28.0940   15.3410 O      25097 WAT       0.0936
  25098 WAT        24.4090   28.0940   15.5910 O      25098 WAT       0.1292
  25099 WAT        24.4090   28.0940   15.8410 O      25099 WAT       0.1357
  25100 WAT        24.4090   28.0940   16.0910 O      25100 WAT       0.1104
  25101 WAT        24.4090   28.0940   16.3410 O      25101 WAT       0.0697
  25102 WAT        24.4090   28.3440   15.0910 O      25102 WAT       0.0748
  25103 WAT        24.4090   28.3440   15.3410 O      25103 WAT       0.1452
  25104 WAT        24.4090   28.3440   15.5910 O      25104 WAT       0.2109
  25105 WAT        24.4090   28.3440   15.8410 O      25105 WAT       0.2356
  25106 WAT        24.4090   28.3440   16.0910 O      25106 WAT       0.2055
  25107 WAT        24.4090   28.3440   16.3410 O      25107 WAT       0.1404
  25108 WAT        24.4090   28.3440   16.5910 O      25108 WAT       0.0750
  25109 WAT        24.4090   28.3440   18.0910 O      25109 WAT       0.0482
  25110 WAT        24.4090   28.3440   18.3410 O      25110 WAT       0.0629
  25111 WAT        24.4090   28.3440   18.5910 O      25111 WAT       0.0592
  25112 WAT        24.4090   28.5940   15.0910 O      25112 WAT       0.0757
  25113 WAT        24.4090   28.5940   15.3410 O      25113 WAT       0.1542
  25114 WAT        24.4090   28.5940   15.5910 O      25114 WAT       0.2374
  25115 WAT        24.4090   28.5940   15.8410 O      25115 WAT       0.2836
  25116 WAT        24.4090   28.5940   16.0910 O      25116 WAT       0.2666
  25117 WAT        24.4090   28.5940   16.3410 O      25117 WAT       0.1977
  25118 WAT        24.4090   28.5940   16.5910 O      25118 WAT       0.1154
  25119 WAT        24.4090   28.5940   16.8410 O      25119 WAT       0.0527
  25120 WAT        24.4090   28.5940   18.0910 O      25120 WAT       0.0715
  25121 WAT        24.4090   28.5940   18.3410 O      25121 WAT       0.0902
  25122 WAT        24.4090   28.5940   18.5910 O      25122 WAT       0.0814
  25123 WAT        24.4090   28.5940   18.8410 O      25123 WAT       0.0533
  25124 WAT        24.4090   28.5940   26.5910 O      25124 WAT       0.0464
  25125 WAT        24.4090   28.5940   26.8410 O      25125 WAT       0.0464
  25126 WAT        24.4090   28.8440   15.0910 O      25126 WAT       0.0525
  25127 WAT        24.4090   28.8440   15.3410 O      25127 WAT       0.1134
  25128 WAT        24.4090   28.8440   15.5910 O      25128 WAT       0.1863
  25129 WAT        24.4090   28.8440   15.8410 O      25129 WAT       0.2390
  25130 WAT        24.4090   28.8440   16.0910 O      25130 WAT       0.2433
  25131 WAT        24.4090   28.8440   16.3410 O      25131 WAT       0.1965
  25132 WAT        24.4090   28.8440   16.5910 O      25132 WAT       0.1252
  25133 WAT        24.4090   28.8440   16.8410 O      25133 WAT       0.0622
  25134 WAT        24.4090   28.8440   17.8410 O      25134 WAT       0.0458
  25135 WAT        24.4090   28.8440   18.0910 O      25135 WAT       0.0782
  25136 WAT        24.4090   28.8440   18.3410 O      25136 WAT       0.0951
  25137 WAT        24.4090   28.8440   18.5910 O      25137 WAT       0.0825
  25138 WAT        24.4090   28.8440   18.8410 O      25138 WAT       0.0516
  25139 WAT        24.4090   28.8440   26.5910 O      25139 WAT       0.0509
  25140 WAT        24.4090   28.8440   26.8410 O      25140 WAT       0.0498
  25141 WAT        24.4090   29.0940   15.3410 O      25141 WAT       0.0586
  25142 WAT        24.4090   29.0940   15.5910 O      25142 WAT       0.1035
  25143 WAT        24.4090   29.0940   15.8410 O      25143 WAT       0.1432
  25144 WAT        24.4090   29.0940   16.0910 O      25144 WAT       0.1580
  25145 WAT        24.4090   29.0940   16.3410 O      25145 WAT       0.1388
  25146 WAT        24.4090   29.0940   16.5910 O      25146 WAT       0.0959
  25147 WAT        24.4090   29.0940   16.8410 O      25147 WAT       0.0514
  25148 WAT        24.4090   29.0940   18.0910 O      25148 WAT       0.0654
  25149 WAT        24.4090   29.0940   18.3410 O      25149 WAT       0.0761
  25150 WAT        24.4090   29.0940   18.5910 O      25150 WAT       0.0634
  25151 WAT        24.4090   29.0940   26.5910 O      25151 WAT       0.0459
  25152 WAT        24.4090   29.3440   15.8410 O      25152 WAT       0.0618
  25153 WAT        24.4090   29.3440   16.0910 O      25153 WAT       0.0738
  25154 WAT        24.4090   29.3440   16.3410 O      25154 WAT       0.0699
  25155 WAT        24.4090   29.3440   16.5910 O      25155 WAT       0.0517
  25156 WAT        24.4090   29.3440   18.3410 O      25156 WAT       0.0492
  25157 WAT        24.4090   32.3440   21.3410 O      25157 WAT       0.0678
  25158 WAT        24.4090   32.3440   21.5910 O      25158 WAT       0.0792
  25159 WAT        24.4090   32.3440   21.8410 O      25159 WAT       0.0678
  25160 WAT        24.4090   32.5940   21.0910 O      25160 WAT       0.0710
  25161 WAT        24.4090   32.5940   21.3410 O      25161 WAT       0.0985
  25162 WAT        24.4090   32.5940   21.5910 O      25162 WAT       0.1085
  25163 WAT        24.4090   32.5940   21.8410 O      25163 WAT       0.0904
  25164 WAT        24.4090   32.5940   22.0910 O      25164 WAT       0.0563
  25165 WAT        24.4090   32.5940   26.3410 O      25165 WAT       0.0456
  25166 WAT        24.4090   32.5940   26.5910 O      25166 WAT       0.0514
  25167 WAT        24.4090   32.5940   26.8410 O      25167 WAT       0.0527
  25168 WAT        24.4090   32.5940   27.0910 O      25168 WAT       0.0483
  25169 WAT        24.4090   32.8440   20.8410 O      25169 WAT       0.0632
  25170 WAT        24.4090   32.8440   21.0910 O      25170 WAT       0.0897
  25171 WAT        24.4090   32.8440   21.3410 O      25171 WAT       0.1113
  25172 WAT        24.4090   32.8440   21.5910 O      25172 WAT       0.1138
  25173 WAT        24.4090   32.8440   21.8410 O      25173 WAT       0.0917
  25174 WAT        24.4090   32.8440   22.0910 O      25174 WAT       0.0588
  25175 WAT        24.4090   32.8440   26.0910 O      25175 WAT       0.0455
  25176 WAT        24.4090   32.8440   26.3410 O      25176 WAT       0.0517
  25177 WAT        24.4090   32.8440   26.5910 O      25177 WAT       0.0555
  25178 WAT        24.4090   32.8440   26.8410 O      25178 WAT       0.0556
  25179 WAT        24.4090   32.8440   27.0910 O      25179 WAT       0.0514
  25180 WAT        24.4090   33.0940   11.8410 O      25180 WAT       0.0504
  25181 WAT        24.4090   33.0940   12.0910 O      25181 WAT       0.0668
  25182 WAT        24.4090   33.0940   12.3410 O      25182 WAT       0.0590
  25183 WAT        24.4090   33.0940   20.5910 O      25183 WAT       0.0528
  25184 WAT        24.4090   33.0940   20.8410 O      25184 WAT       0.0729
  25185 WAT        24.4090   33.0940   21.0910 O      25185 WAT       0.0906
  25186 WAT        24.4090   33.0940   21.3410 O      25186 WAT       0.0996
  25187 WAT        24.4090   33.0940   21.5910 O      25187 WAT       0.0935
  25188 WAT        24.4090   33.0940   21.8410 O      25188 WAT       0.0735
  25189 WAT        24.4090   33.0940   22.0910 O      25189 WAT       0.0508
  25190 WAT        24.4090   33.0940   23.5910 O      25190 WAT       0.0463
  25191 WAT        24.4090   33.0940   23.8410 O      25191 WAT       0.0477
  25192 WAT        24.4090   33.0940   24.0910 O      25192 WAT       0.0455
  25193 WAT        24.4090   33.0940   26.3410 O      25193 WAT       0.0491
  25194 WAT        24.4090   33.0940   26.5910 O      25194 WAT       0.0516
  25195 WAT        24.4090   33.0940   26.8410 O      25195 WAT       0.0519
  25196 WAT        24.4090   33.0940   27.0910 O      25196 WAT       0.0496
  25197 WAT        24.4090   33.0940   27.3410 O      25197 WAT       0.0452
  25198 WAT        24.4090   33.3440   11.8410 O      25198 WAT       0.0672
  25199 WAT        24.4090   33.3440   12.0910 O      25199 WAT       0.0885
  25200 WAT        24.4090   33.3440   12.3410 O      25200 WAT       0.0789
  25201 WAT        24.4090   33.3440   12.5910 O      25201 WAT       0.0478
  25202 WAT        24.4090   33.3440   20.5910 O      25202 WAT       0.0538
  25203 WAT        24.4090   33.3440   20.8410 O      25203 WAT       0.0669
  25204 WAT        24.4090   33.3440   21.0910 O      25204 WAT       0.0739
  25205 WAT        24.4090   33.3440   21.3410 O      25205 WAT       0.0726
  25206 WAT        24.4090   33.3440   21.5910 O      25206 WAT       0.0632
  25207 WAT        24.4090   33.3440   21.8410 O      25207 WAT       0.0504
  25208 WAT        24.4090   33.3440   22.8410 O      25208 WAT       0.0485
  25209 WAT        24.4090   33.3440   23.0910 O      25209 WAT       0.0548
  25210 WAT        24.4090   33.3440   23.3410 O      25210 WAT       0.0598
  25211 WAT        24.4090   33.3440   23.5910 O      25211 WAT       0.0620
  25212 WAT        24.4090   33.3440   23.8410 O      25212 WAT       0.0599
  25213 WAT        24.4090   33.3440   24.0910 O      25213 WAT       0.0529
  25214 WAT        24.4090   33.5940   11.8410 O      25214 WAT       0.0619
  25215 WAT        24.4090   33.5940   12.0910 O      25215 WAT       0.0809
  25216 WAT        24.4090   33.5940   12.3410 O      25216 WAT       0.0726
  25217 WAT        24.4090   33.5940   12.5910 O      25217 WAT       0.0451
  25218 WAT        24.4090   33.5940   16.0910 O      25218 WAT       0.0530
  25219 WAT        24.4090   33.5940   16.3410 O      25219 WAT       0.0695
  25220 WAT        24.4090   33.5940   16.5910 O      25220 WAT       0.0628
  25221 WAT        24.4090   33.5940   20.8410 O      25221 WAT       0.0498
  25222 WAT        24.4090   33.5940   21.0910 O      25222 WAT       0.0504
  25223 WAT        24.4090   33.5940   21.3410 O      25223 WAT       0.0460
  25224 WAT        24.4090   33.5940   22.5910 O      25224 WAT       0.0494
  25225 WAT        24.4090   33.5940   22.8410 O      25225 WAT       0.0579
  25226 WAT        24.4090   33.5940   23.0910 O      25226 WAT       0.0643
  25227 WAT        24.4090   33.5940   23.3410 O      25227 WAT       0.0674
  25228 WAT        24.4090   33.5940   23.5910 O      25228 WAT       0.0660
  25229 WAT        24.4090   33.5940   23.8410 O      25229 WAT       0.0593
  25230 WAT        24.4090   33.5940   24.0910 O      25230 WAT       0.0482
  25231 WAT        24.4090   33.8440   12.0910 O      25231 WAT       0.0526
  25232 WAT        24.4090   33.8440   12.3410 O      25232 WAT       0.0472
  25233 WAT        24.4090   33.8440   15.8410 O      25233 WAT       0.0521
  25234 WAT        24.4090   33.8440   16.0910 O      25234 WAT       0.0881
  25235 WAT        24.4090   33.8440   16.3410 O      25235 WAT       0.1062
  25236 WAT        24.4090   33.8440   16.5910 O      25236 WAT       0.0895
  25237 WAT        24.4090   33.8440   16.8410 O      25237 WAT       0.0525
  25238 WAT        24.4090   33.8440   22.5910 O      25238 WAT       0.0530
  25239 WAT        24.4090   33.8440   22.8410 O      25239 WAT       0.0608
  25240 WAT        24.4090   33.8440   23.0910 O      25240 WAT       0.0650
  25241 WAT        24.4090   33.8440   23.3410 O      25241 WAT       0.0643
  25242 WAT        24.4090   33.8440   23.5910 O      25242 WAT       0.0583
  25243 WAT        24.4090   33.8440   23.8410 O      25243 WAT       0.0481
  25244 WAT        24.4090   34.0940   15.8410 O      25244 WAT       0.0793
  25245 WAT        24.4090   34.0940   16.0910 O      25245 WAT       0.1203
  25246 WAT        24.4090   34.0940   16.3410 O      25246 WAT       0.1327
  25247 WAT        24.4090   34.0940   16.5910 O      25247 WAT       0.1043
  25248 WAT        24.4090   34.0940   16.8410 O      25248 WAT       0.0583
  25249 WAT        24.4090   34.0940   22.3410 O      25249 WAT       0.0452
  25250 WAT        24.4090   34.0940   22.5910 O      25250 WAT       0.0530
  25251 WAT        24.4090   34.0940   22.8410 O      25251 WAT       0.0586
  25252 WAT        24.4090   34.0940   23.0910 O      25252 WAT       0.0595
  25253 WAT        24.4090   34.0940   23.3410 O      25253 WAT       0.0547
  25254 WAT        24.4090   34.0940   23.5910 O      25254 WAT       0.0455
  25255 WAT        24.4090   34.3440   15.5910 O      25255 WAT       0.0556
  25256 WAT        24.4090   34.3440   15.8410 O      25256 WAT       0.0977
  25257 WAT        24.4090   34.3440   16.0910 O      25257 WAT       0.1316
  25258 WAT        24.4090   34.3440   16.3410 O      25258 WAT       0.1320
  25259 WAT        24.4090   34.3440   16.5910 O      25259 WAT       0.0964
  25260 WAT        24.4090   34.3440   16.8410 O      25260 WAT       0.0514
  25261 WAT        24.4090   34.3440   22.5910 O      25261 WAT       0.0504
  25262 WAT        24.4090   34.3440   22.8410 O      25262 WAT       0.0533
  25263 WAT        24.4090   34.3440   23.0910 O      25263 WAT       0.0514
  25264 WAT        24.4090   34.5940   15.5910 O      25264 WAT       0.0637
  25265 WAT        24.4090   34.5940   15.8410 O      25265 WAT       0.0965
  25266 WAT        24.4090   34.5940   16.0910 O      25266 WAT       0.1145
  25267 WAT        24.4090   34.5940   16.3410 O      25267 WAT       0.1036
  25268 WAT        24.4090   34.5940   16.5910 O      25268 WAT       0.0700
  25269 WAT        24.4090   34.5940   18.5910 O      25269 WAT       0.0493
  25270 WAT        24.4090   34.5940   18.8410 O      25270 WAT       0.0511
  25271 WAT        24.4090   34.5940   19.0910 O      25271 WAT       0.0482
  25272 WAT        24.4090   34.5940   22.5910 O      25272 WAT       0.0453
  25273 WAT        24.4090   34.5940   22.8410 O      25273 WAT       0.0460
  25274 WAT        24.4090   34.8440   15.5910 O      25274 WAT       0.0571
  25275 WAT        24.4090   34.8440   15.8410 O      25275 WAT       0.0752
  25276 WAT        24.4090   34.8440   16.0910 O      25276 WAT       0.0785
  25277 WAT        24.4090   34.8440   16.3410 O      25277 WAT       0.0637
  25278 WAT        24.4090   34.8440   18.3410 O      25278 WAT       0.0520
  25279 WAT        24.4090   34.8440   18.5910 O      25279 WAT       0.0591
  25280 WAT        24.4090   34.8440   18.8410 O      25280 WAT       0.0603
  25281 WAT        24.4090   34.8440   19.0910 O      25281 WAT       0.0560
  25282 WAT        24.4090   34.8440   19.3410 O      25282 WAT       0.0489
  25283 WAT        24.4090   35.0940   15.8410 O      25283 WAT       0.0451
  25284 WAT        24.4090   35.0940   18.3410 O      25284 WAT       0.0481
  25285 WAT        24.4090   35.0940   18.5910 O      25285 WAT       0.0538
  25286 WAT        24.4090   35.0940   18.8410 O      25286 WAT       0.0538
  25287 WAT        24.4090   35.0940   19.0910 O      25287 WAT       0.0493
  25288 WAT        24.6590    8.3440   28.8410 O      25288 WAT       0.0452
  25289 WAT        24.6590    8.3440   29.0910 O      25289 WAT       0.0534
  25290 WAT        24.6590    8.3440   29.3410 O      25290 WAT       0.0497
  25291 WAT        24.6590    8.5940   29.0910 O      25291 WAT       0.0465
  25292 WAT        24.6590   10.0940   26.5910 O      25292 WAT       0.0466
  25293 WAT        24.6590   10.3440   26.5910 O      25293 WAT       0.0491
  25294 WAT        24.6590   10.3440   26.8410 O      25294 WAT       0.0496
  25295 WAT        24.6590   10.5940   26.5910 O      25295 WAT       0.0473
  25296 WAT        24.6590   10.5940   26.8410 O      25296 WAT       0.0533
  25297 WAT        24.6590   10.5940   27.0910 O      25297 WAT       0.0498
  25298 WAT        24.6590   10.8440   26.8410 O      25298 WAT       0.0584
  25299 WAT        24.6590   10.8440   27.0910 O      25299 WAT       0.0627
  25300 WAT        24.6590   10.8440   27.3410 O      25300 WAT       0.0546
  25301 WAT        24.6590   11.0940   26.8410 O      25301 WAT       0.0701
  25302 WAT        24.6590   11.0940   27.0910 O      25302 WAT       0.0879
  25303 WAT        24.6590   11.0940   27.3410 O      25303 WAT       0.0851
  25304 WAT        24.6590   11.0940   27.5910 O      25304 WAT       0.0632
  25305 WAT        24.6590   11.3440   26.5910 O      25305 WAT       0.0469
  25306 WAT        24.6590   11.3440   26.8410 O      25306 WAT       0.0905
  25307 WAT        24.6590   11.3440   27.0910 O      25307 WAT       0.1289
  25308 WAT        24.6590   11.3440   27.3410 O      25308 WAT       0.1356
  25309 WAT        24.6590   11.3440   27.5910 O      25309 WAT       0.1047
  25310 WAT        24.6590   11.3440   27.8410 O      25310 WAT       0.0589
  25311 WAT        24.6590   11.5940   17.0910 O      25311 WAT       0.0519
  25312 WAT        24.6590   11.5940   17.3410 O      25312 WAT       0.0543
  25313 WAT        24.6590   11.5940   17.5910 O      25313 WAT       0.0504
  25314 WAT        24.6590   11.5940   26.5910 O      25314 WAT       0.0521
  25315 WAT        24.6590   11.5940   26.8410 O      25315 WAT       0.1134
  25316 WAT        24.6590   11.5940   27.0910 O      25316 WAT       0.1757
  25317 WAT        24.6590   11.5940   27.3410 O      25317 WAT       0.1952
  25318 WAT        24.6590   11.5940   27.5910 O      25318 WAT       0.1552
  25319 WAT        24.6590   11.5940   27.8410 O      25319 WAT       0.0880
  25320 WAT        24.6590   11.8440   16.5910 O      25320 WAT       0.0462
  25321 WAT        24.6590   11.8440   16.8410 O      25321 WAT       0.0578
  25322 WAT        24.6590   11.8440   17.0910 O      25322 WAT       0.0660
  25323 WAT        24.6590   11.8440   17.3410 O      25323 WAT       0.0673
  25324 WAT        24.6590   11.8440   17.5910 O      25324 WAT       0.0608
  25325 WAT        24.6590   11.8440   17.8410 O      25325 WAT       0.0490
  25326 WAT        24.6590   11.8440   26.5910 O      25326 WAT       0.0525
  25327 WAT        24.6590   11.8440   26.8410 O      25327 WAT       0.1234
  25328 WAT        24.6590   11.8440   27.0910 O      25328 WAT       0.2024
  25329 WAT        24.6590   11.8440   27.3410 O      25329 WAT       0.2341
  25330 WAT        24.6590   11.8440   27.5910 O      25330 WAT       0.1910
  25331 WAT        24.6590   11.8440   27.8410 O      25331 WAT       0.1096
  25332 WAT        24.6590   12.0940   16.3410 O      25332 WAT       0.0453
  25333 WAT        24.6590   12.0940   16.5910 O      25333 WAT       0.0582
  25334 WAT        24.6590   12.0940   16.8410 O      25334 WAT       0.0704
  25335 WAT        24.6590   12.0940   17.0910 O      25335 WAT       0.0774
  25336 WAT        24.6590   12.0940   17.3410 O      25336 WAT       0.0760
  25337 WAT        24.6590   12.0940   17.5910 O      25337 WAT       0.0665
  25338 WAT        24.6590   12.0940   17.8410 O      25338 WAT       0.0522
  25339 WAT        24.6590   12.0940   26.8410 O      25339 WAT       0.1095
  25340 WAT        24.6590   12.0940   27.0910 O      25340 WAT       0.1879
  25341 WAT        24.6590   12.0940   27.3410 O      25341 WAT       0.2250
  25342 WAT        24.6590   12.0940   27.5910 O      25342 WAT       0.1880
  25343 WAT        24.6590   12.0940   27.8410 O      25343 WAT       0.1095
  25344 WAT        24.6590   12.3440   16.3410 O      25344 WAT       0.0551
  25345 WAT        24.6590   12.3440   16.5910 O      25345 WAT       0.0678
  25346 WAT        24.6590   12.3440   16.8410 O      25346 WAT       0.0785
  25347 WAT        24.6590   12.3440   17.0910 O      25347 WAT       0.0825
  25348 WAT        24.6590   12.3440   17.3410 O      25348 WAT       0.0780
  25349 WAT        24.6590   12.3440   17.5910 O      25349 WAT       0.0661
  25350 WAT        24.6590   12.3440   17.8410 O      25350 WAT       0.0509
  25351 WAT        24.6590   12.3440   26.8410 O      25351 WAT       0.0769
  25352 WAT        24.6590   12.3440   27.0910 O      25352 WAT       0.1374
  25353 WAT        24.6590   12.3440   27.3410 O      25353 WAT       0.1697
  25354 WAT        24.6590   12.3440   27.5910 O      25354 WAT       0.1452
  25355 WAT        24.6590   12.3440   27.8410 O      25355 WAT       0.0860
  25356 WAT        24.6590   12.5940   16.0910 O      25356 WAT       0.0482
  25357 WAT        24.6590   12.5940   16.3410 O      25357 WAT       0.0592
  25358 WAT        24.6590   12.5940   16.5910 O      25358 WAT       0.0706
  25359 WAT        24.6590   12.5940   16.8410 O      25359 WAT       0.0788
  25360 WAT        24.6590   12.5940   17.0910 O      25360 WAT       0.0799
  25361 WAT        24.6590   12.5940   17.3410 O      25361 WAT       0.0731
  25362 WAT        24.6590   12.5940   17.5910 O      25362 WAT       0.0606
  25363 WAT        24.6590   12.5940   17.8410 O      25363 WAT       0.0462
  25364 WAT        24.6590   12.5940   27.0910 O      25364 WAT       0.0782
  25365 WAT        24.6590   12.5940   27.3410 O      25365 WAT       0.0994
  25366 WAT        24.6590   12.5940   27.5910 O      25366 WAT       0.0873
  25367 WAT        24.6590   12.5940   27.8410 O      25367 WAT       0.0529
  25368 WAT        24.6590   12.8440   16.3410 O      25368 WAT       0.0532
  25369 WAT        24.6590   12.8440   16.5910 O      25369 WAT       0.0636
  25370 WAT        24.6590   12.8440   16.8410 O      25370 WAT       0.0701
  25371 WAT        24.6590   12.8440   17.0910 O      25371 WAT       0.0698
  25372 WAT        24.6590   12.8440   17.3410 O      25372 WAT       0.0627
  25373 WAT        24.6590   12.8440   17.5910 O      25373 WAT       0.0516
  25374 WAT        24.6590   12.8440   19.8410 O      25374 WAT       0.0456
  25375 WAT        24.6590   12.8440   27.3410 O      25375 WAT       0.0459
  25376 WAT        24.6590   13.0940   16.5910 O      25376 WAT       0.0479
  25377 WAT        24.6590   13.0940   16.8410 O      25377 WAT       0.0537
  25378 WAT        24.6590   13.0940   17.0910 O      25378 WAT       0.0541
  25379 WAT        24.6590   13.0940   17.3410 O      25379 WAT       0.0490
  25380 WAT        24.6590   13.0940   19.0910 O      25380 WAT       0.0510
  25381 WAT        24.6590   13.0940   19.3410 O      25381 WAT       0.0565
  25382 WAT        24.6590   13.0940   19.5910 O      25382 WAT       0.0580
  25383 WAT        24.6590   13.0940   19.8410 O      25383 WAT       0.0551
  25384 WAT        24.6590   13.0940   20.0910 O      25384 WAT       0.0468
  25385 WAT        24.6590   13.3440   18.5910 O      25385 WAT       0.0482
  25386 WAT        24.6590   13.3440   18.8410 O      25386 WAT       0.0597
  25387 WAT        24.6590   13.3440   19.0910 O      25387 WAT       0.0689
  25388 WAT        24.6590   13.3440   19.3410 O      25388 WAT       0.0730
  25389 WAT        24.6590   13.3440   19.5910 O      25389 WAT       0.0711
  25390 WAT        24.6590   13.3440   19.8410 O      25390 WAT       0.0631
  25391 WAT        24.6590   13.3440   20.0910 O      25391 WAT       0.0502
  25392 WAT        24.6590   13.5940   18.3410 O      25392 WAT       0.0507
  25393 WAT        24.6590   13.5940   18.5910 O      25393 WAT       0.0660
  25394 WAT        24.6590   13.5940   18.8410 O      25394 WAT       0.0792
  25395 WAT        24.6590   13.5940   19.0910 O      25395 WAT       0.0863
  25396 WAT        24.6590   13.5940   19.3410 O      25396 WAT       0.0856
  25397 WAT        24.6590   13.5940   19.5910 O      25397 WAT       0.0777
  25398 WAT        24.6590   13.5940   19.8410 O      25398 WAT       0.0646
  25399 WAT        24.6590   13.5940   20.0910 O      25399 WAT       0.0488
  25400 WAT        24.6590   13.5940   28.3410 O      25400 WAT       0.0453
  25401 WAT        24.6590   13.8440   18.0910 O      25401 WAT       0.0454
  25402 WAT        24.6590   13.8440   18.3410 O      25402 WAT       0.0662
  25403 WAT        24.6590   13.8440   18.5910 O      25403 WAT       0.0858
  25404 WAT        24.6590   13.8440   18.8410 O      25404 WAT       0.0976
  25405 WAT        24.6590   13.8440   19.0910 O      25405 WAT       0.0984
  25406 WAT        24.6590   13.8440   19.3410 O      25406 WAT       0.0896
  25407 WAT        24.6590   13.8440   19.5910 O      25407 WAT       0.0746
  25408 WAT        24.6590   13.8440   19.8410 O      25408 WAT       0.0576
  25409 WAT        24.6590   13.8440   27.8410 O      25409 WAT       0.0523
  25410 WAT        24.6590   13.8440   28.0910 O      25410 WAT       0.0854
  25411 WAT        24.6590   13.8440   28.3410 O      25411 WAT       0.1011
  25412 WAT        24.6590   13.8440   28.5910 O      25412 WAT       0.0866
  25413 WAT        24.6590   13.8440   28.8410 O      25413 WAT       0.0538
  25414 WAT        24.6590   14.0940   12.0910 O      25414 WAT       0.0451
  25415 WAT        24.6590   14.0940   12.3410 O      25415 WAT       0.0490
  25416 WAT        24.6590   14.0940   18.0910 O      25416 WAT       0.0523
  25417 WAT        24.6590   14.0940   18.3410 O      25417 WAT       0.0798
  25418 WAT        24.6590   14.0940   18.5910 O      25418 WAT       0.1020
  25419 WAT        24.6590   14.0940   18.8410 O      25419 WAT       0.1096
  25420 WAT        24.6590   14.0940   19.0910 O      25420 WAT       0.1016
  25421 WAT        24.6590   14.0940   19.3410 O      25421 WAT       0.0838
  25422 WAT        24.6590   14.0940   19.5910 O      25422 WAT       0.0631
  25423 WAT        24.6590   14.0940   27.8410 O      25423 WAT       0.0774
  25424 WAT        24.6590   14.0940   28.0910 O      25424 WAT       0.1362
  25425 WAT        24.6590   14.0940   28.3410 O      25425 WAT       0.1744
  25426 WAT        24.6590   14.0940   28.5910 O      25426 WAT       0.1628
  25427 WAT        24.6590   14.0940   28.8410 O      25427 WAT       0.1107
  25428 WAT        24.6590   14.0940   29.0910 O      25428 WAT       0.0549
  25429 WAT        24.6590   14.3440   12.0910 O      25429 WAT       0.0511
  25430 WAT        24.6590   14.3440   12.3410 O      25430 WAT       0.0535
  25431 WAT        24.6590   14.3440   12.5910 O      25431 WAT       0.0458
  25432 WAT        24.6590   14.3440   18.0910 O      25432 WAT       0.0543
  25433 WAT        24.6590   14.3440   18.3410 O      25433 WAT       0.0854
  25434 WAT        24.6590   14.3440   18.5910 O      25434 WAT       0.1080
  25435 WAT        24.6590   14.3440   18.8410 O      25435 WAT       0.1110
  25436 WAT        24.6590   14.3440   19.0910 O      25436 WAT       0.0954
  25437 WAT        24.6590   14.3440   19.3410 O      25437 WAT       0.0712
  25438 WAT        24.6590   14.3440   19.5910 O      25438 WAT       0.0481
  25439 WAT        24.6590   14.3440   27.8410 O      25439 WAT       0.0925
  25440 WAT        24.6590   14.3440   28.0910 O      25440 WAT       0.1699
  25441 WAT        24.6590   14.3440   28.3410 O      25441 WAT       0.2301
  25442 WAT        24.6590   14.3440   28.5910 O      25442 WAT       0.2296
  25443 WAT        24.6590   14.3440   28.8410 O      25443 WAT       0.1682
  25444 WAT        24.6590   14.3440   29.0910 O      25444 WAT       0.0906
  25445 WAT        24.6590   14.5940   11.8410 O      25445 WAT       0.0458
  25446 WAT        24.6590   14.5940   12.0910 O      25446 WAT       0.0531
  25447 WAT        24.6590   14.5940   12.3410 O      25447 WAT       0.0549
  25448 WAT        24.6590   14.5940   12.5910 O      25448 WAT       0.0451
  25449 WAT        24.6590   14.5940   18.0910 O      25449 WAT       0.0497
  25450 WAT        24.6590   14.5940   18.3410 O      25450 WAT       0.0806
  25451 WAT        24.6590   14.5940   18.5910 O      25451 WAT       0.1018
  25452 WAT        24.6590   14.5940   18.8410 O      25452 WAT       0.1017
  25453 WAT        24.6590   14.5940   19.0910 O      25453 WAT       0.0827
  25454 WAT        24.6590   14.5940   19.3410 O      25454 WAT       0.0569
  25455 WAT        24.6590   14.5940   27.8410 O      25455 WAT       0.0877
  25456 WAT        24.6590   14.5940   28.0910 O      25456 WAT       0.1646
  25457 WAT        24.6590   14.5940   28.3410 O      25457 WAT       0.2313
  25458 WAT        24.6590   14.5940   28.5910 O      25458 WAT       0.2426
  25459 WAT        24.6590   14.5940   28.8410 O      25459 WAT       0.1887
  25460 WAT        24.6590   14.5940   29.0910 O      25460 WAT       0.1089
  25461 WAT        24.6590   14.5940   29.3410 O      25461 WAT       0.0467
  25462 WAT        24.6590   14.8440   12.0910 O      25462 WAT       0.0502
  25463 WAT        24.6590   14.8440   12.3410 O      25463 WAT       0.0520
  25464 WAT        24.6590   14.8440   18.3410 O      25464 WAT       0.0677
  25465 WAT        24.6590   14.8440   18.5910 O      25465 WAT       0.0868
  25466 WAT        24.6590   14.8440   18.8410 O      25466 WAT       0.0863
  25467 WAT        24.6590   14.8440   19.0910 O      25467 WAT       0.0684
  25468 WAT        24.6590   14.8440   27.8410 O      25468 WAT       0.0658
  25469 WAT        24.6590   14.8440   28.0910 O      25469 WAT       0.1239
  25470 WAT        24.6590   14.8440   28.3410 O      25470 WAT       0.1776
  25471 WAT        24.6590   14.8440   28.5910 O      25471 WAT       0.1928
  25472 WAT        24.6590   14.8440   28.8410 O      25472 WAT       0.1571
  25473 WAT        24.6590   14.8440   29.0910 O      25473 WAT       0.0958
  25474 WAT        24.6590   15.0940   12.3410 O      25474 WAT       0.0455
  25475 WAT        24.6590   15.0940   18.3410 O      25475 WAT       0.0517
  25476 WAT        24.6590   15.0940   18.5910 O      25476 WAT       0.0692
  25477 WAT        24.6590   15.0940   18.8410 O      25477 WAT       0.0704
  25478 WAT        24.6590   15.0940   19.0910 O      25478 WAT       0.0559
  25479 WAT        24.6590   15.0940   28.0910 O      25479 WAT       0.0726
  25480 WAT        24.6590   15.0940   28.3410 O      25480 WAT       0.1045
  25481 WAT        24.6590   15.0940   28.5910 O      25481 WAT       0.1159
  25482 WAT        24.6590   15.0940   28.8410 O      25482 WAT       0.0976
  25483 WAT        24.6590   15.0940   29.0910 O      25483 WAT       0.0621
  25484 WAT        24.6590   15.3440   18.5910 O      25484 WAT       0.0527
  25485 WAT        24.6590   15.3440   18.8410 O      25485 WAT       0.0566
  25486 WAT        24.6590   15.3440   19.0910 O      25486 WAT       0.0465
  25487 WAT        24.6590   15.3440   28.3410 O      25487 WAT       0.0472
  25488 WAT        24.6590   15.3440   28.5910 O      25488 WAT       0.0528
  25489 WAT        24.6590   15.3440   28.8410 O      25489 WAT       0.0453
  25490 WAT        24.6590   15.5940   18.8410 O      25490 WAT       0.0461
  25491 WAT        24.6590   15.5940   26.0910 O      25491 WAT       0.0468
  25492 WAT        24.6590   15.5940   26.3410 O      25492 WAT       0.0624
  25493 WAT        24.6590   15.5940   26.5910 O      25493 WAT       0.0626
  25494 WAT        24.6590   15.5940   26.8410 O      25494 WAT       0.0476
  25495 WAT        24.6590   15.8440    9.8410 O      25495 WAT       0.0510
  25496 WAT        24.6590   15.8440   10.0910 O      25496 WAT       0.0669
  25497 WAT        24.6590   15.8440   10.3410 O      25497 WAT       0.0746
  25498 WAT        24.6590   15.8440   10.5910 O      25498 WAT       0.0709
  25499 WAT        24.6590   15.8440   10.8410 O      25499 WAT       0.0598
  25500 WAT        24.6590   15.8440   11.0910 O      25500 WAT       0.0487
  25501 WAT        24.6590   15.8440   25.8410 O      25501 WAT       0.0553
  25502 WAT        24.6590   15.8440   26.0910 O      25502 WAT       0.1004
  25503 WAT        24.6590   15.8440   26.3410 O      25503 WAT       0.1384
  25504 WAT        24.6590   15.8440   26.5910 O      25504 WAT       0.1437
  25505 WAT        24.6590   15.8440   26.8410 O      25505 WAT       0.1121
  25506 WAT        24.6590   15.8440   27.0910 O      25506 WAT       0.0665
  25507 WAT        24.6590   16.0940    9.5910 O      25507 WAT       0.0596
  25508 WAT        24.6590   16.0940    9.8410 O      25508 WAT       0.0883
  25509 WAT        24.6590   16.0940   10.0910 O      25509 WAT       0.1114
  25510 WAT        24.6590   16.0940   10.3410 O      25510 WAT       0.1170
  25511 WAT        24.6590   16.0940   10.5910 O      25511 WAT       0.1030
  25512 WAT        24.6590   16.0940   10.8410 O      25512 WAT       0.0793
  25513 WAT        24.6590   16.0940   11.0910 O      25513 WAT       0.0585
  25514 WAT        24.6590   16.0940   11.3410 O      25514 WAT       0.0458
  25515 WAT        24.6590   16.0940   25.8410 O      25515 WAT       0.0735
  25516 WAT        24.6590   16.0940   26.0910 O      25516 WAT       0.1386
  25517 WAT        24.6590   16.0940   26.3410 O      25517 WAT       0.1996
  25518 WAT        24.6590   16.0940   26.5910 O      25518 WAT       0.2167
  25519 WAT        24.6590   16.0940   26.8410 O      25519 WAT       0.1762
  25520 WAT        24.6590   16.0940   27.0910 O      25520 WAT       0.1074
  25521 WAT        24.6590   16.0940   27.3410 O      25521 WAT       0.0498
  25522 WAT        24.6590   16.3440    9.3410 O      25522 WAT       0.0499
  25523 WAT        24.6590   16.3440    9.5910 O      25523 WAT       0.0806
  25524 WAT        24.6590   16.3440    9.8410 O      25524 WAT       0.1144
  25525 WAT        24.6590   16.3440   10.0910 O      25525 WAT       0.1372
  25526 WAT        24.6590   16.3440   10.3410 O      25526 WAT       0.1357
  25527 WAT        24.6590   16.3440   10.5910 O      25527 WAT       0.1109
  25528 WAT        24.6590   16.3440   10.8410 O      25528 WAT       0.0779
  25529 WAT        24.6590   16.3440   11.0910 O      25529 WAT       0.0519
  25530 WAT        24.6590   16.3440   25.8410 O      25530 WAT       0.0633
  25531 WAT        24.6590   16.3440   26.0910 O      25531 WAT       0.1250
  25532 WAT        24.6590   16.3440   26.3410 O      25532 WAT       0.1901
  25533 WAT        24.6590   16.3440   26.5910 O      25533 WAT       0.2185
  25534 WAT        24.6590   16.3440   26.8410 O      25534 WAT       0.1881
  25535 WAT        24.6590   16.3440   27.0910 O      25535 WAT       0.1207
  25536 WAT        24.6590   16.3440   27.3410 O      25536 WAT       0.0579
  25537 WAT        24.6590   16.5940    9.3410 O      25537 WAT       0.0502
  25538 WAT        24.6590   16.5940    9.5910 O      25538 WAT       0.0769
  25539 WAT        24.6590   16.5940    9.8410 O      25539 WAT       0.1036
  25540 WAT        24.6590   16.5940   10.0910 O      25540 WAT       0.1183
  25541 WAT        24.6590   16.5940   10.3410 O      25541 WAT       0.1111
  25542 WAT        24.6590   16.5940   10.5910 O      25542 WAT       0.0852
  25543 WAT        24.6590   16.5940   10.8410 O      25543 WAT       0.0550
  25544 WAT        24.6590   16.5940   19.3410 O      25544 WAT       0.0451
  25545 WAT        24.6590   16.5940   26.0910 O      25545 WAT       0.0749
  25546 WAT        24.6590   16.5940   26.3410 O      25546 WAT       0.1221
  25547 WAT        24.6590   16.5940   26.5910 O      25547 WAT       0.1511
  25548 WAT        24.6590   16.5940   26.8410 O      25548 WAT       0.1402
  25549 WAT        24.6590   16.5940   27.0910 O      25549 WAT       0.0967
  25550 WAT        24.6590   16.5940   27.3410 O      25550 WAT       0.0494
  25551 WAT        24.6590   16.8440    6.8410 O      25551 WAT       0.0475
  25552 WAT        24.6590   16.8440    7.0910 O      25552 WAT       0.0459
  25553 WAT        24.6590   16.8440    9.5910 O      25553 WAT       0.0501
  25554 WAT        24.6590   16.8440    9.8410 O      25554 WAT       0.0637
  25555 WAT        24.6590   16.8440   10.0910 O      25555 WAT       0.0695
  25556 WAT        24.6590   16.8440   10.3410 O      25556 WAT       0.0627
  25557 WAT        24.6590   16.8440   10.5910 O      25557 WAT       0.0458
  25558 WAT        24.6590   16.8440   19.0910 O      25558 WAT       0.0504
  25559 WAT        24.6590   16.8440   19.3410 O      25559 WAT       0.0562
  25560 WAT        24.6590   16.8440   19.5910 O      25560 WAT       0.0505
  25561 WAT        24.6590   16.8440   26.3410 O      25561 WAT       0.0545
  25562 WAT        24.6590   16.8440   26.5910 O      25562 WAT       0.0742
  25563 WAT        24.6590   16.8440   26.8410 O      25563 WAT       0.0756
  25564 WAT        24.6590   16.8440   27.0910 O      25564 WAT       0.0570
  25565 WAT        24.6590   17.0940    6.0910 O      25565 WAT       0.0493
  25566 WAT        24.6590   17.0940    6.3410 O      25566 WAT       0.0555
  25567 WAT        24.6590   17.0940    6.5910 O      25567 WAT       0.0593
  25568 WAT        24.6590   17.0940    6.8410 O      25568 WAT       0.0587
  25569 WAT        24.6590   17.0940    7.0910 O      25569 WAT       0.0517
  25570 WAT        24.6590   17.0940   19.0910 O      25570 WAT       0.0664
  25571 WAT        24.6590   17.0940   19.3410 O      25571 WAT       0.0769
  25572 WAT        24.6590   17.0940   19.5910 O      25572 WAT       0.0714
  25573 WAT        24.6590   17.0940   19.8410 O      25573 WAT       0.0574
  25574 WAT        24.6590   17.3440    5.8410 O      25574 WAT       0.0518
  25575 WAT        24.6590   17.3440    6.0910 O      25575 WAT       0.0590
  25576 WAT        24.6590   17.3440    6.3410 O      25576 WAT       0.0641
  25577 WAT        24.6590   17.3440    6.5910 O      25577 WAT       0.0650
  25578 WAT        24.6590   17.3440    6.8410 O      25578 WAT       0.0601
  25579 WAT        24.6590   17.3440    7.0910 O      25579 WAT       0.0488
  25580 WAT        24.6590   17.3440   18.8410 O      25580 WAT       0.0596
  25581 WAT        24.6590   17.3440   19.0910 O      25581 WAT       0.0941
  25582 WAT        24.6590   17.3440   19.3410 O      25582 WAT       0.1112
  25583 WAT        24.6590   17.3440   19.5910 O      25583 WAT       0.1034
  25584 WAT        24.6590   17.3440   19.8410 O      25584 WAT       0.0809
  25585 WAT        24.6590   17.3440   20.0910 O      25585 WAT       0.0586
  25586 WAT        24.6590   17.5940    5.5910 O      25586 WAT       0.0465
  25587 WAT        24.6590   17.5940    5.8410 O      25587 WAT       0.0527
  25588 WAT        24.6590   17.5940    6.0910 O      25588 WAT       0.0582
  25589 WAT        24.6590   17.5940    6.3410 O      25589 WAT       0.0606
  25590 WAT        24.6590   17.5940    6.5910 O      25590 WAT       0.0581
  25591 WAT        24.6590   17.5940    6.8410 O      25591 WAT       0.0501
  25592 WAT        24.6590   17.5940   18.8410 O      25592 WAT       0.0731
  25593 WAT        24.6590   17.5940   19.0910 O      25593 WAT       0.1205
  25594 WAT        24.6590   17.5940   19.3410 O      25594 WAT       0.1478
  25595 WAT        24.6590   17.5940   19.5910 O      25595 WAT       0.1388
  25596 WAT        24.6590   17.5940   19.8410 O      25596 WAT       0.1045
  25597 WAT        24.6590   17.5940   20.0910 O      25597 WAT       0.0697
  25598 WAT        24.6590   17.5940   20.3410 O      25598 WAT       0.0466
  25599 WAT        24.6590   17.8440    5.8410 O      25599 WAT       0.0458
  25600 WAT        24.6590   17.8440    6.0910 O      25600 WAT       0.0490
  25601 WAT        24.6590   17.8440    6.3410 O      25601 WAT       0.0486
  25602 WAT        24.6590   17.8440   18.8410 O      25602 WAT       0.0731
  25603 WAT        24.6590   17.8440   19.0910 O      25603 WAT       0.1263
  25604 WAT        24.6590   17.8440   19.3410 O      25604 WAT       0.1622
  25605 WAT        24.6590   17.8440   19.5910 O      25605 WAT       0.1562
  25606 WAT        24.6590   17.8440   19.8410 O      25606 WAT       0.1155
  25607 WAT        24.6590   17.8440   20.0910 O      25607 WAT       0.0707
  25608 WAT        24.6590   18.0940   18.8410 O      25608 WAT       0.0600
  25609 WAT        24.6590   18.0940   19.0910 O      25609 WAT       0.1072
  25610 WAT        24.6590   18.0940   19.3410 O      25610 WAT       0.1429
  25611 WAT        24.6590   18.0940   19.5910 O      25611 WAT       0.1414
  25612 WAT        24.6590   18.0940   19.8410 O      25612 WAT       0.1042
  25613 WAT        24.6590   18.0940   20.0910 O      25613 WAT       0.0598
  25614 WAT        24.6590   18.3440   19.0910 O      25614 WAT       0.0780
  25615 WAT        24.6590   18.3440   19.3410 O      25615 WAT       0.1050
  25616 WAT        24.6590   18.3440   19.5910 O      25616 WAT       0.1048
  25617 WAT        24.6590   18.3440   19.8410 O      25617 WAT       0.0767
  25618 WAT        24.6590   18.5940   19.0910 O      25618 WAT       0.0541
  25619 WAT        24.6590   18.5940   19.3410 O      25619 WAT       0.0698
  25620 WAT        24.6590   18.5940   19.5910 O      25620 WAT       0.0676
  25621 WAT        24.6590   18.5940   19.8410 O      25621 WAT       0.0479
  25622 WAT        24.6590   18.8440   19.3410 O      25622 WAT       0.0457
  25623 WAT        24.6590   19.3440   26.8410 O      25623 WAT       0.0562
  25624 WAT        24.6590   19.3440   27.0910 O      25624 WAT       0.0581
  25625 WAT        24.6590   19.5940   26.8410 O      25625 WAT       0.0536
  25626 WAT        24.6590   19.5940   27.0910 O      25626 WAT       0.0541
  25627 WAT        24.6590   21.3440    3.3410 O      25627 WAT       0.0564
  25628 WAT        24.6590   21.3440    3.5910 O      25628 WAT       0.0607
  25629 WAT        24.6590   21.3440    3.8410 O      25629 WAT       0.0536
  25630 WAT        24.6590   21.5940    3.0910 O      25630 WAT       0.0720
  25631 WAT        24.6590   21.5940    3.3410 O      25631 WAT       0.0889
  25632 WAT        24.6590   21.5940    3.5910 O      25632 WAT       0.0836
  25633 WAT        24.6590   21.5940    3.8410 O      25633 WAT       0.0617
  25634 WAT        24.6590   21.8440    2.8410 O      25634 WAT       0.0636
  25635 WAT        24.6590   21.8440    3.0910 O      25635 WAT       0.0966
  25636 WAT        24.6590   21.8440    3.3410 O      25636 WAT       0.1072
  25637 WAT        24.6590   21.8440    3.5910 O      25637 WAT       0.0875
  25638 WAT        24.6590   21.8440    3.8410 O      25638 WAT       0.0538
  25639 WAT        24.6590   22.0940    2.8410 O      25639 WAT       0.0719
  25640 WAT        24.6590   22.0940    3.0910 O      25640 WAT       0.1005
  25641 WAT        24.6590   22.0940    3.3410 O      25641 WAT       0.0998
  25642 WAT        24.6590   22.0940    3.5910 O      25642 WAT       0.0707
  25643 WAT        24.6590   22.3440    2.8410 O      25643 WAT       0.0651
  25644 WAT        24.6590   22.3440    3.0910 O      25644 WAT       0.0829
  25645 WAT        24.6590   22.3440    3.3410 O      25645 WAT       0.0733
  25646 WAT        24.6590   22.3440    3.5910 O      25646 WAT       0.0450
  25647 WAT        24.6590   22.3440   27.5910 O      25647 WAT       0.0496
  25648 WAT        24.6590   22.3440   27.8410 O      25648 WAT       0.0684
  25649 WAT        24.6590   22.3440   28.0910 O      25649 WAT       0.0591
  25650 WAT        24.6590   22.5940    2.8410 O      25650 WAT       0.0509
  25651 WAT        24.6590   22.5940    3.0910 O      25651 WAT       0.0579
  25652 WAT        24.6590   22.5940   27.5910 O      25652 WAT       0.0767
  25653 WAT        24.6590   22.5940   27.8410 O      25653 WAT       0.1067
  25654 WAT        24.6590   22.5940   28.0910 O      25654 WAT       0.0940
  25655 WAT        24.6590   22.5940   28.3410 O      25655 WAT       0.0537
  25656 WAT        24.6590   22.8440   27.5910 O      25656 WAT       0.0793
  25657 WAT        24.6590   22.8440   27.8410 O      25657 WAT       0.1102
  25658 WAT        24.6590   22.8440   28.0910 O      25658 WAT       0.0984
  25659 WAT        24.6590   22.8440   28.3410 O      25659 WAT       0.0586
  25660 WAT        24.6590   23.0940   19.5910 O      25660 WAT       0.0604
  25661 WAT        24.6590   23.0940   19.8410 O      25661 WAT       0.0594
  25662 WAT        24.6590   23.0940   27.5910 O      25662 WAT       0.0583
  25663 WAT        24.6590   23.0940   27.8410 O      25663 WAT       0.0781
  25664 WAT        24.6590   23.0940   28.0910 O      25664 WAT       0.0695
  25665 WAT        24.6590   23.3440   19.3410 O      25665 WAT       0.0487
  25666 WAT        24.6590   23.3440   19.5910 O      25666 WAT       0.0740
  25667 WAT        24.6590   23.3440   19.8410 O      25667 WAT       0.0776
  25668 WAT        24.6590   23.3440   20.0910 O      25668 WAT       0.0576
  25669 WAT        24.6590   23.5940   19.3410 O      25669 WAT       0.0504
  25670 WAT        24.6590   23.5940   19.5910 O      25670 WAT       0.0788
  25671 WAT        24.6590   23.5940   19.8410 O      25671 WAT       0.0864
  25672 WAT        24.6590   23.5940   20.0910 O      25672 WAT       0.0687
  25673 WAT        24.6590   23.8440   19.3410 O      25673 WAT       0.0477
  25674 WAT        24.6590   23.8440   19.5910 O      25674 WAT       0.0749
  25675 WAT        24.6590   23.8440   19.8410 O      25675 WAT       0.0841
  25676 WAT        24.6590   23.8440   20.0910 O      25676 WAT       0.0703
  25677 WAT        24.6590   23.8440   20.3410 O      25677 WAT       0.0475
  25678 WAT        24.6590   24.0940   19.5910 O      25678 WAT       0.0652
  25679 WAT        24.6590   24.0940   19.8410 O      25679 WAT       0.0731
  25680 WAT        24.6590   24.0940   20.0910 O      25680 WAT       0.0630
  25681 WAT        24.6590   24.0940   20.3410 O      25681 WAT       0.0464
  25682 WAT        24.6590   24.3440   19.5910 O      25682 WAT       0.0524
  25683 WAT        24.6590   24.3440   19.8410 O      25683 WAT       0.0577
  25684 WAT        24.6590   24.3440   20.0910 O      25684 WAT       0.0504
  25685 WAT        24.6590   24.8440   27.8410 O      25685 WAT       0.0527
  25686 WAT        24.6590   24.8440   28.0910 O      25686 WAT       0.0577
  25687 WAT        24.6590   24.8440   28.3410 O      25687 WAT       0.0556
  25688 WAT        24.6590   24.8440   28.5910 O      25688 WAT       0.0472
  25689 WAT        24.6590   25.0940   27.3410 O      25689 WAT       0.0524
  25690 WAT        24.6590   25.0940   27.5910 O      25690 WAT       0.0598
  25691 WAT        24.6590   25.0940   27.8410 O      25691 WAT       0.0661
  25692 WAT        24.6590   25.0940   28.0910 O      25692 WAT       0.0684
  25693 WAT        24.6590   25.0940   28.3410 O      25693 WAT       0.0637
  25694 WAT        24.6590   25.0940   28.5910 O      25694 WAT       0.0528
  25695 WAT        24.6590   25.3440   22.5910 O      25695 WAT       0.0514
  25696 WAT        24.6590   25.3440   22.8410 O      25696 WAT       0.0659
  25697 WAT        24.6590   25.3440   23.0910 O      25697 WAT       0.0741
  25698 WAT        24.6590   25.3440   23.3410 O      25698 WAT       0.0729
  25699 WAT        24.6590   25.3440   23.5910 O      25699 WAT       0.0642
  25700 WAT        24.6590   25.3440   23.8410 O      25700 WAT       0.0531
  25701 WAT        24.6590   25.3440   27.0910 O      25701 WAT       0.0556
  25702 WAT        24.6590   25.3440   27.3410 O      25702 WAT       0.0637
  25703 WAT        24.6590   25.3440   27.5910 O      25703 WAT       0.0672
  25704 WAT        24.6590   25.3440   27.8410 O      25704 WAT       0.0677
  25705 WAT        24.6590   25.3440   28.0910 O      25705 WAT       0.0646
  25706 WAT        24.6590   25.3440   28.3410 O      25706 WAT       0.0566
  25707 WAT        24.6590   25.5940   22.0910 O      25707 WAT       0.0464
  25708 WAT        24.6590   25.5940   22.3410 O      25708 WAT       0.0702
  25709 WAT        24.6590   25.5940   22.5910 O      25709 WAT       0.0975
  25710 WAT        24.6590   25.5940   22.8410 O      25710 WAT       0.1199
  25711 WAT        24.6590   25.5940   23.0910 O      25711 WAT       0.1286
  25712 WAT        24.6590   25.5940   23.3410 O      25712 WAT       0.1212
  25713 WAT        24.6590   25.5940   23.5910 O      25713 WAT       0.1031
  25714 WAT        24.6590   25.5940   23.8410 O      25714 WAT       0.0829
  25715 WAT        24.6590   25.5940   24.0910 O      25715 WAT       0.0655
  25716 WAT        24.6590   25.5940   24.3410 O      25716 WAT       0.0507
  25717 WAT        24.6590   25.5940   26.8410 O      25717 WAT       0.0471
  25718 WAT        24.6590   25.5940   27.0910 O      25718 WAT       0.0567
  25719 WAT        24.6590   25.5940   27.3410 O      25719 WAT       0.0614
  25720 WAT        24.6590   25.5940   27.5910 O      25720 WAT       0.0603
  25721 WAT        24.6590   25.5940   27.8410 O      25721 WAT       0.0554
  25722 WAT        24.6590   25.5940   28.0910 O      25722 WAT       0.0481
  25723 WAT        24.6590   25.8440   21.8410 O      25723 WAT       0.0493
  25724 WAT        24.6590   25.8440   22.0910 O      25724 WAT       0.0775
  25725 WAT        24.6590   25.8440   22.3410 O      25725 WAT       0.1121
  25726 WAT        24.6590   25.8440   22.5910 O      25726 WAT       0.1444
  25727 WAT        24.6590   25.8440   22.8410 O      25727 WAT       0.1626
  25728 WAT        24.6590   25.8440   23.0910 O      25728 WAT       0.1607
  25729 WAT        24.6590   25.8440   23.3410 O      25729 WAT       0.1417
  25730 WAT        24.6590   25.8440   23.5910 O      25730 WAT       0.1153
  25731 WAT        24.6590   25.8440   23.8410 O      25731 WAT       0.0907
  25732 WAT        24.6590   25.8440   24.0910 O      25732 WAT       0.0716
  25733 WAT        24.6590   25.8440   24.3410 O      25733 WAT       0.0567
  25734 WAT        24.6590   25.8440   27.0910 O      25734 WAT       0.0487
  25735 WAT        24.6590   25.8440   27.3410 O      25735 WAT       0.0490
  25736 WAT        24.6590   26.0940   16.0910 O      25736 WAT       0.0513
  25737 WAT        24.6590   26.0940   16.3410 O      25737 WAT       0.0649
  25738 WAT        24.6590   26.0940   16.5910 O      25738 WAT       0.0596
  25739 WAT        24.6590   26.0940   21.8410 O      25739 WAT       0.0634
  25740 WAT        24.6590   26.0940   22.0910 O      25740 WAT       0.0961
  25741 WAT        24.6590   26.0940   22.3410 O      25741 WAT       0.1310
  25742 WAT        24.6590   26.0940   22.5910 O      25742 WAT       0.1553
  25743 WAT        24.6590   26.0940   22.8410 O      25743 WAT       0.1585
  25744 WAT        24.6590   26.0940   23.0910 O      25744 WAT       0.1417
  25745 WAT        24.6590   26.0940   23.3410 O      25745 WAT       0.1147
  25746 WAT        24.6590   26.0940   23.5910 O      25746 WAT       0.0878
  25747 WAT        24.6590   26.0940   23.8410 O      25747 WAT       0.0671
  25748 WAT        24.6590   26.0940   24.0910 O      25748 WAT       0.0533
  25749 WAT        24.6590   26.3440   15.8410 O      25749 WAT       0.0468
  25750 WAT        24.6590   26.3440   16.0910 O      25750 WAT       0.0773
  25751 WAT        24.6590   26.3440   16.3410 O      25751 WAT       0.0907
  25752 WAT        24.6590   26.3440   16.5910 O      25752 WAT       0.0777
  25753 WAT        24.6590   26.3440   16.8410 O      25753 WAT       0.0499
  25754 WAT        24.6590   26.3440   21.8410 O      25754 WAT       0.0563
  25755 WAT        24.6590   26.3440   22.0910 O      25755 WAT       0.0822
  25756 WAT        24.6590   26.3440   22.3410 O      25756 WAT       0.1063
  25757 WAT        24.6590   26.3440   22.5910 O      25757 WAT       0.1171
  25758 WAT        24.6590   26.3440   22.8410 O      25758 WAT       0.1089
  25759 WAT        24.6590   26.3440   23.0910 O      25759 WAT       0.0877
  25760 WAT        24.6590   26.3440   23.3410 O      25760 WAT       0.0642
  25761 WAT        24.6590   26.3440   23.5910 O      25761 WAT       0.0453
  25762 WAT        24.6590   26.5940   15.8410 O      25762 WAT       0.0500
  25763 WAT        24.6590   26.5940   16.0910 O      25763 WAT       0.0762
  25764 WAT        24.6590   26.5940   16.3410 O      25764 WAT       0.0829
  25765 WAT        24.6590   26.5940   16.5910 O      25765 WAT       0.0661
  25766 WAT        24.6590   26.5940   22.0910 O      25766 WAT       0.0472
  25767 WAT        24.6590   26.5940   22.3410 O      25767 WAT       0.0585
  25768 WAT        24.6590   26.5940   22.5910 O      25768 WAT       0.0606
  25769 WAT        24.6590   26.5940   22.8410 O      25769 WAT       0.0519
  25770 WAT        24.6590   26.8440   16.0910 O      25770 WAT       0.0504
  25771 WAT        24.6590   26.8440   16.3410 O      25771 WAT       0.0506
  25772 WAT        24.6590   26.8440   20.0910 O      25772 WAT       0.0477
  25773 WAT        24.6590   28.0940   15.3410 O      25773 WAT       0.0666
  25774 WAT        24.6590   28.0940   15.5910 O      25774 WAT       0.0894
  25775 WAT        24.6590   28.0940   15.8410 O      25775 WAT       0.0896
  25776 WAT        24.6590   28.0940   16.0910 O      25776 WAT       0.0684
  25777 WAT        24.6590   28.3440   15.0910 O      25777 WAT       0.0582
  25778 WAT        24.6590   28.3440   15.3410 O      25778 WAT       0.1105
  25779 WAT        24.6590   28.3440   15.5910 O      25779 WAT       0.1540
  25780 WAT        24.6590   28.3440   15.8410 O      25780 WAT       0.1620
  25781 WAT        24.6590   28.3440   16.0910 O      25781 WAT       0.1305
  25782 WAT        24.6590   28.3440   16.3410 O      25782 WAT       0.0812
  25783 WAT        24.6590   28.3440   18.3410 O      25783 WAT       0.0559
  25784 WAT        24.6590   28.3440   18.5910 O      25784 WAT       0.0575
  25785 WAT        24.6590   28.5940   15.0910 O      25785 WAT       0.0649
  25786 WAT        24.6590   28.5940   15.3410 O      25786 WAT       0.1282
  25787 WAT        24.6590   28.5940   15.5910 O      25787 WAT       0.1867
  25788 WAT        24.6590   28.5940   15.8410 O      25788 WAT       0.2059
  25789 WAT        24.6590   28.5940   16.0910 O      25789 WAT       0.1751
  25790 WAT        24.6590   28.5940   16.3410 O      25790 WAT       0.1160
  25791 WAT        24.6590   28.5940   16.5910 O      25791 WAT       0.0600
  25792 WAT        24.6590   28.5940   18.0910 O      25792 WAT       0.0667
  25793 WAT        24.6590   28.5940   18.3410 O      25793 WAT       0.0911
  25794 WAT        24.6590   28.5940   18.5910 O      25794 WAT       0.0894
  25795 WAT        24.6590   28.5940   18.8410 O      25795 WAT       0.0639
  25796 WAT        24.6590   28.8440   15.0910 O      25796 WAT       0.0513
  25797 WAT        24.6590   28.8440   15.3410 O      25797 WAT       0.1060
  25798 WAT        24.6590   28.8440   15.5910 O      25798 WAT       0.1619
  25799 WAT        24.6590   28.8440   15.8410 O      25799 WAT       0.1874
  25800 WAT        24.6590   28.8440   16.0910 O      25800 WAT       0.1680
  25801 WAT        24.6590   28.8440   16.3410 O      25801 WAT       0.1182
  25802 WAT        24.6590   28.8440   16.5910 O      25802 WAT       0.0655
  25803 WAT        24.6590   28.8440   17.8410 O      25803 WAT       0.0467
  25804 WAT        24.6590   28.8440   18.0910 O      25804 WAT       0.0860
  25805 WAT        24.6590   28.8440   18.3410 O      25805 WAT       0.1129
  25806 WAT        24.6590   28.8440   18.5910 O      25806 WAT       0.1064
  25807 WAT        24.6590   28.8440   18.8410 O      25807 WAT       0.0723
  25808 WAT        24.6590   29.0940   15.3410 O      25808 WAT       0.0641
  25809 WAT        24.6590   29.0940   15.5910 O      25809 WAT       0.1030
  25810 WAT        24.6590   29.0940   15.8410 O      25810 WAT       0.1251
  25811 WAT        24.6590   29.0940   16.0910 O      25811 WAT       0.1179
  25812 WAT        24.6590   29.0940   16.3410 O      25812 WAT       0.0876
  25813 WAT        24.6590   29.0940   16.5910 O      25813 WAT       0.0514
  25814 WAT        24.6590   29.0940   17.8410 O      25814 WAT       0.0509
  25815 WAT        24.6590   29.0940   18.0910 O      25815 WAT       0.0890
  25816 WAT        24.6590   29.0940   18.3410 O      25816 WAT       0.1112
  25817 WAT        24.6590   29.0940   18.5910 O      25817 WAT       0.1000
  25818 WAT        24.6590   29.0940   18.8410 O      25818 WAT       0.0648
  25819 WAT        24.6590   29.3440   15.5910 O      25819 WAT       0.0493
  25820 WAT        24.6590   29.3440   15.8410 O      25820 WAT       0.0628
  25821 WAT        24.6590   29.3440   16.0910 O      25821 WAT       0.0619
  25822 WAT        24.6590   29.3440   16.3410 O      25822 WAT       0.0479
  25823 WAT        24.6590   29.3440   17.8410 O      25823 WAT       0.0493
  25824 WAT        24.6590   29.3440   18.0910 O      25824 WAT       0.0799
  25825 WAT        24.6590   29.3440   18.3410 O      25825 WAT       0.0929
  25826 WAT        24.6590   29.3440   18.5910 O      25826 WAT       0.0780
  25827 WAT        24.6590   29.3440   18.8410 O      25827 WAT       0.0473
  25828 WAT        24.6590   29.5940   17.8410 O      25828 WAT       0.0451
  25829 WAT        24.6590   29.5940   18.0910 O      25829 WAT       0.0663
  25830 WAT        24.6590   29.5940   18.3410 O      25830 WAT       0.0698
  25831 WAT        24.6590   29.5940   18.5910 O      25831 WAT       0.0532
  25832 WAT        24.6590   29.8440   18.0910 O      25832 WAT       0.0522
  25833 WAT        24.6590   29.8440   18.3410 O      25833 WAT       0.0490
  25834 WAT        24.6590   30.0940   26.5910 O      25834 WAT       0.0465
  25835 WAT        24.6590   30.0940   26.8410 O      25835 WAT       0.0546
  25836 WAT        24.6590   30.0940   27.0910 O      25836 WAT       0.0533
  25837 WAT        24.6590   30.3440   26.5910 O      25837 WAT       0.0569
  25838 WAT        24.6590   30.3440   26.8410 O      25838 WAT       0.0698
  25839 WAT        24.6590   30.3440   27.0910 O      25839 WAT       0.0696
  25840 WAT        24.6590   30.3440   27.3410 O      25840 WAT       0.0574
  25841 WAT        24.6590   30.5940   26.5910 O      25841 WAT       0.0616
  25842 WAT        24.6590   30.5940   26.8410 O      25842 WAT       0.0787
  25843 WAT        24.6590   30.5940   27.0910 O      25843 WAT       0.0800
  25844 WAT        24.6590   30.5940   27.3410 O      25844 WAT       0.0657
  25845 WAT        24.6590   30.5940   27.5910 O      25845 WAT       0.0450
  25846 WAT        24.6590   30.8440   26.5910 O      25846 WAT       0.0595
  25847 WAT        24.6590   30.8440   26.8410 O      25847 WAT       0.0790
  25848 WAT        24.6590   30.8440   27.0910 O      25848 WAT       0.0819
  25849 WAT        24.6590   30.8440   27.3410 O      25849 WAT       0.0674
  25850 WAT        24.6590   30.8440   27.5910 O      25850 WAT       0.0452
  25851 WAT        24.6590   31.0940   26.5910 O      25851 WAT       0.0521
  25852 WAT        24.6590   31.0940   26.8410 O      25852 WAT       0.0712
  25853 WAT        24.6590   31.0940   27.0910 O      25853 WAT       0.0754
  25854 WAT        24.6590   31.0940   27.3410 O      25854 WAT       0.0625
  25855 WAT        24.6590   31.3440   26.8410 O      25855 WAT       0.0588
  25856 WAT        24.6590   31.3440   27.0910 O      25856 WAT       0.0630
  25857 WAT        24.6590   31.3440   27.3410 O      25857 WAT       0.0528
  25858 WAT        24.6590   31.5940   26.8410 O      25858 WAT       0.0473
  25859 WAT        24.6590   31.5940   27.0910 O      25859 WAT       0.0502
  25860 WAT        24.6590   32.0940   21.0910 O      25860 WAT       0.0489
  25861 WAT        24.6590   32.0940   21.3410 O      25861 WAT       0.0711
  25862 WAT        24.6590   32.0940   21.5910 O      25862 WAT       0.0786
  25863 WAT        24.6590   32.0940   21.8410 O      25863 WAT       0.0635
  25864 WAT        24.6590   32.3440   20.8410 O      25864 WAT       0.0526
  25865 WAT        24.6590   32.3440   21.0910 O      25865 WAT       0.0848
  25866 WAT        24.6590   32.3440   21.3410 O      25866 WAT       0.1149
  25867 WAT        24.6590   32.3440   21.5910 O      25867 WAT       0.1223
  25868 WAT        24.6590   32.3440   21.8410 O      25868 WAT       0.0971
  25869 WAT        24.6590   32.3440   22.0910 O      25869 WAT       0.0567
  25870 WAT        24.6590   32.3440   26.5910 O      25870 WAT       0.0464
  25871 WAT        24.6590   32.3440   26.8410 O      25871 WAT       0.0488
  25872 WAT        24.6590   32.3440   27.0910 O      25872 WAT       0.0461
  25873 WAT        24.6590   32.5940   20.5910 O      25873 WAT       0.0522
  25874 WAT        24.6590   32.5940   20.8410 O      25874 WAT       0.0815
  25875 WAT        24.6590   32.5940   21.0910 O      25875 WAT       0.1166
  25876 WAT        24.6590   32.5940   21.3410 O      25876 WAT       0.1443
  25877 WAT        24.6590   32.5940   21.5910 O      25877 WAT       0.1447
  25878 WAT        24.6590   32.5940   21.8410 O      25878 WAT       0.1116
  25879 WAT        24.6590   32.5940   22.0910 O      25879 WAT       0.0655
  25880 WAT        24.6590   32.5940   26.0910 O      25880 WAT       0.0467
  25881 WAT        24.6590   32.5940   26.3410 O      25881 WAT       0.0518
  25882 WAT        24.6590   32.5940   26.5910 O      25882 WAT       0.0550
  25883 WAT        24.6590   32.5940   26.8410 O      25883 WAT       0.0545
  25884 WAT        24.6590   32.5940   27.0910 O      25884 WAT       0.0499
  25885 WAT        24.6590   32.8440   11.8410 O      25885 WAT       0.0512
  25886 WAT        24.6590   32.8440   12.0910 O      25886 WAT       0.0710
  25887 WAT        24.6590   32.8440   12.3410 O      25887 WAT       0.0653
  25888 WAT        24.6590   32.8440   20.3410 O      25888 WAT       0.0494
  25889 WAT        24.6590   32.8440   20.5910 O      25889 WAT       0.0735
  25890 WAT        24.6590   32.8440   20.8410 O      25890 WAT       0.1016
  25891 WAT        24.6590   32.8440   21.0910 O      25891 WAT       0.1281
  25892 WAT        24.6590   32.8440   21.3410 O      25892 WAT       0.1423
  25893 WAT        24.6590   32.8440   21.5910 O      25893 WAT       0.1322
  25894 WAT        24.6590   32.8440   21.8410 O      25894 WAT       0.0982
  25895 WAT        24.6590   32.8440   22.0910 O      25895 WAT       0.0589
  25896 WAT        24.6590   32.8440   23.8410 O      25896 WAT       0.0483
  25897 WAT        24.6590   32.8440   24.0910 O      25897 WAT       0.0513
  25898 WAT        24.6590   32.8440   24.3410 O      25898 WAT       0.0499
  25899 WAT        24.6590   32.8440   24.5910 O      25899 WAT       0.0454
  25900 WAT        24.6590   32.8440   25.8410 O      25900 WAT       0.0493
  25901 WAT        24.6590   32.8440   26.0910 O      25901 WAT       0.0540
  25902 WAT        24.6590   32.8440   26.3410 O      25902 WAT       0.0568
  25903 WAT        24.6590   32.8440   26.5910 O      25903 WAT       0.0571
  25904 WAT        24.6590   32.8440   26.8410 O      25904 WAT       0.0545
  25905 WAT        24.6590   32.8440   27.0910 O      25905 WAT       0.0494
  25906 WAT        24.6590   33.0940   11.5910 O      25906 WAT       0.0489
  25907 WAT        24.6590   33.0940   11.8410 O      25907 WAT       0.1000
  25908 WAT        24.6590   33.0940   12.0910 O      25908 WAT       0.1380
  25909 WAT        24.6590   33.0940   12.3410 O      25909 WAT       0.1286
  25910 WAT        24.6590   33.0940   12.5910 O      25910 WAT       0.0814
  25911 WAT        24.6590   33.0940   20.3410 O      25911 WAT       0.0596
  25912 WAT        24.6590   33.0940   20.5910 O      25912 WAT       0.0818
  25913 WAT        24.6590   33.0940   20.8410 O      25913 WAT       0.1014
  25914 WAT        24.6590   33.0940   21.0910 O      25914 WAT       0.1131
  25915 WAT        24.6590   33.0940   21.3410 O      25915 WAT       0.1120
  25916 WAT        24.6590   33.0940   21.5910 O      25916 WAT       0.0955
  25917 WAT        24.6590   33.0940   21.8410 O      25917 WAT       0.0689
  25918 WAT        24.6590   33.0940   23.0910 O      25918 WAT       0.0478
  25919 WAT        24.6590   33.0940   23.3410 O      25919 WAT       0.0588
  25920 WAT        24.6590   33.0940   23.5910 O      25920 WAT       0.0687
  25921 WAT        24.6590   33.0940   23.8410 O      25921 WAT       0.0746
  25922 WAT        24.6590   33.0940   24.0910 O      25922 WAT       0.0736
  25923 WAT        24.6590   33.0940   24.3410 O      25923 WAT       0.0662
  25924 WAT        24.6590   33.0940   24.5910 O      25924 WAT       0.0562
  25925 WAT        24.6590   33.0940   24.8410 O      25925 WAT       0.0475
  25926 WAT        24.6590   33.0940   25.8410 O      25926 WAT       0.0482
  25927 WAT        24.6590   33.0940   26.0910 O      25927 WAT       0.0512
  25928 WAT        24.6590   33.0940   26.3410 O      25928 WAT       0.0521
  25929 WAT        24.6590   33.0940   26.5910 O      25929 WAT       0.0510
  25930 WAT        24.6590   33.0940   26.8410 O      25930 WAT       0.0481
  25931 WAT        24.6590   33.3440   11.5910 O      25931 WAT       0.0666
  25932 WAT        24.6590   33.3440   11.8410 O      25932 WAT       0.1328
  25933 WAT        24.6590   33.3440   12.0910 O      25933 WAT       0.1826
  25934 WAT        24.6590   33.3440   12.3410 O      25934 WAT       0.1726
  25935 WAT        24.6590   33.3440   12.5910 O      25935 WAT       0.1128
  25936 WAT        24.6590   33.3440   12.8410 O      25936 WAT       0.0517
  25937 WAT        24.6590   33.3440   16.0910 O      25937 WAT       0.0470
  25938 WAT        24.6590   33.3440   16.3410 O      25938 WAT       0.0622
  25939 WAT        24.6590   33.3440   16.5910 O      25939 WAT       0.0579
  25940 WAT        24.6590   33.3440   20.3410 O      25940 WAT       0.0556
  25941 WAT        24.6590   33.3440   20.5910 O      25941 WAT       0.0712
  25942 WAT        24.6590   33.3440   20.8410 O      25942 WAT       0.0805
  25943 WAT        24.6590   33.3440   21.0910 O      25943 WAT       0.0808
  25944 WAT        24.6590   33.3440   21.3410 O      25944 WAT       0.0719
  25945 WAT        24.6590   33.3440   21.5910 O      25945 WAT       0.0571
  25946 WAT        24.6590   33.3440   22.8410 O      25946 WAT       0.0515
  25947 WAT        24.6590   33.3440   23.0910 O      25947 WAT       0.0655
  25948 WAT        24.6590   33.3440   23.3410 O      25948 WAT       0.0793
  25949 WAT        24.6590   33.3440   23.5910 O      25949 WAT       0.0891
  25950 WAT        24.6590   33.3440   23.8410 O      25950 WAT       0.0911
  25951 WAT        24.6590   33.3440   24.0910 O      25951 WAT       0.0836
  25952 WAT        24.6590   33.3440   24.3410 O      25952 WAT       0.0694
  25953 WAT        24.6590   33.3440   24.5910 O      25953 WAT       0.0547
  25954 WAT        24.6590   33.5940   11.5910 O      25954 WAT       0.0633
  25955 WAT        24.6590   33.5940   11.8410 O      25955 WAT       0.1218
  25956 WAT        24.6590   33.5940   12.0910 O      25956 WAT       0.1663
  25957 WAT        24.6590   33.5940   12.3410 O      25957 WAT       0.1596
  25958 WAT        24.6590   33.5940   12.5910 O      25958 WAT       0.1081
  25959 WAT        24.6590   33.5940   12.8410 O      25959 WAT       0.0523
  25960 WAT        24.6590   33.5940   16.0910 O      25960 WAT       0.0743
  25961 WAT        24.6590   33.5940   16.3410 O      25961 WAT       0.0907
  25962 WAT        24.6590   33.5940   16.5910 O      25962 WAT       0.0787
  25963 WAT        24.6590   33.5940   16.8410 O      25963 WAT       0.0485
  25964 WAT        24.6590   33.5940   20.5910 O      25964 WAT       0.0490
  25965 WAT        24.6590   33.5940   20.8410 O      25965 WAT       0.0516
  25966 WAT        24.6590   33.5940   21.0910 O      25966 WAT       0.0480
  25967 WAT        24.6590   33.5940   22.5910 O      25967 WAT       0.0456
  25968 WAT        24.6590   33.5940   22.8410 O      25968 WAT       0.0603
  25969 WAT        24.6590   33.5940   23.0910 O      25969 WAT       0.0754
  25970 WAT        24.6590   33.5940   23.3410 O      25970 WAT       0.0879
  25971 WAT        24.6590   33.5940   23.5910 O      25971 WAT       0.0935
  25972 WAT        24.6590   33.5940   23.8410 O      25972 WAT       0.0893
  25973 WAT        24.6590   33.5940   24.0910 O      25973 WAT       0.0757
  25974 WAT        24.6590   33.5940   24.3410 O      25974 WAT       0.0579
  25975 WAT        24.6590   33.8440   11.8410 O      25975 WAT       0.0786
  25976 WAT        24.6590   33.8440   12.0910 O      25976 WAT       0.1059
  25977 WAT        24.6590   33.8440   12.3410 O      25977 WAT       0.1029
  25978 WAT        24.6590   33.8440   12.5910 O      25978 WAT       0.0722
  25979 WAT        24.6590   33.8440   15.8410 O      25979 WAT       0.0694
  25980 WAT        24.6590   33.8440   16.0910 O      25980 WAT       0.1063
  25981 WAT        24.6590   33.8440   16.3410 O      25981 WAT       0.1195
  25982 WAT        24.6590   33.8440   16.5910 O      25982 WAT       0.0965
  25983 WAT        24.6590   33.8440   16.8410 O      25983 WAT       0.0561
  25984 WAT        24.6590   33.8440   22.5910 O      25984 WAT       0.0487
  25985 WAT        24.6590   33.8440   22.8410 O      25985 WAT       0.0628
  25986 WAT        24.6590   33.8440   23.0910 O      25986 WAT       0.0754
  25987 WAT        24.6590   33.8440   23.3410 O      25987 WAT       0.0829
  25988 WAT        24.6590   33.8440   23.5910 O      25988 WAT       0.0820
  25989 WAT        24.6590   33.8440   23.8410 O      25989 WAT       0.0722
  25990 WAT        24.6590   33.8440   24.0910 O      25990 WAT       0.0561
  25991 WAT        24.6590   34.0940   12.0910 O      25991 WAT       0.0480
  25992 WAT        24.6590   34.0940   12.3410 O      25992 WAT       0.0469
  25993 WAT        24.6590   34.0940   15.5910 O      25993 WAT       0.0514
  25994 WAT        24.6590   34.0940   15.8410 O      25994 WAT       0.0925
  25995 WAT        24.6590   34.0940   16.0910 O      25995 WAT       0.1277
  25996 WAT        24.6590   34.0940   16.3410 O      25996 WAT       0.1312
  25997 WAT        24.6590   34.0940   16.5910 O      25997 WAT       0.0985
  25998 WAT        24.6590   34.0940   16.8410 O      25998 WAT       0.0546
  25999 WAT        24.6590   34.0940   22.5910 O      25999 WAT       0.0488
  26000 WAT        24.6590   34.0940   22.8410 O      26000 WAT       0.0602
  26001 WAT        24.6590   34.0940   23.0910 O      26001 WAT       0.0683
  26002 WAT        24.6590   34.0940   23.3410 O      26002 WAT       0.0695
  26003 WAT        24.6590   34.0940   23.5910 O      26003 WAT       0.0629
  26004 WAT        24.6590   34.0940   23.8410 O      26004 WAT       0.0502
  26005 WAT        24.6590   34.3440   15.5910 O      26005 WAT       0.0643
  26006 WAT        24.6590   34.3440   15.8410 O      26006 WAT       0.1011
  26007 WAT        24.6590   34.3440   16.0910 O      26007 WAT       0.1242
  26008 WAT        24.6590   34.3440   16.3410 O      26008 WAT       0.1158
  26009 WAT        24.6590   34.3440   16.5910 O      26009 WAT       0.0807
  26010 WAT        24.6590   34.3440   22.5910 O      26010 WAT       0.0468
  26011 WAT        24.6590   34.3440   22.8410 O      26011 WAT       0.0548
  26012 WAT        24.6590   34.3440   23.0910 O      26012 WAT       0.0581
  26013 WAT        24.6590   34.3440   23.3410 O      26013 WAT       0.0544
  26014 WAT        24.6590   34.5940   15.5910 O      26014 WAT       0.0654
  26015 WAT        24.6590   34.5940   15.8410 O      26015 WAT       0.0892
  26016 WAT        24.6590   34.5940   16.0910 O      26016 WAT       0.0967
  26017 WAT        24.6590   34.5940   16.3410 O      26017 WAT       0.0812
  26018 WAT        24.6590   34.5940   16.5910 O      26018 WAT       0.0525
  26019 WAT        24.6590   34.5940   18.3410 O      26019 WAT       0.0463
  26020 WAT        24.6590   34.5940   18.5910 O      26020 WAT       0.0488
  26021 WAT        24.6590   34.5940   18.8410 O      26021 WAT       0.0469
  26022 WAT        24.6590   34.5940   22.8410 O      26022 WAT       0.0476
  26023 WAT        24.6590   34.5940   23.0910 O      26023 WAT       0.0472
  26024 WAT        24.6590   34.8440   15.5910 O      26024 WAT       0.0525
  26025 WAT        24.6590   34.8440   15.8410 O      26025 WAT       0.0625
  26026 WAT        24.6590   34.8440   16.0910 O      26026 WAT       0.0597
  26027 WAT        24.6590   34.8440   16.3410 O      26027 WAT       0.0452
  26028 WAT        24.6590   34.8440   18.3410 O      26028 WAT       0.0502
  26029 WAT        24.6590   34.8440   18.5910 O      26029 WAT       0.0527
  26030 WAT        24.6590   34.8440   18.8410 O      26030 WAT       0.0504
  26031 WAT        24.9090   10.8440   26.8410 O      26031 WAT       0.0451
  26032 WAT        24.9090   10.8440   27.0910 O      26032 WAT       0.0514
  26033 WAT        24.9090   10.8440   27.3410 O      26033 WAT       0.0487
  26034 WAT        24.9090   11.0940   26.8410 O      26034 WAT       0.0525
  26035 WAT        24.9090   11.0940   27.0910 O      26035 WAT       0.0692
  26036 WAT        24.9090   11.0940   27.3410 O      26036 WAT       0.0721
  26037 WAT        24.9090   11.0940   27.5910 O      26037 WAT       0.0591
  26038 WAT        24.9090   11.3440   26.8410 O      26038 WAT       0.0675
  26039 WAT        24.9090   11.3440   27.0910 O      26039 WAT       0.1004
  26040 WAT        24.9090   11.3440   27.3410 O      26040 WAT       0.1126
  26041 WAT        24.9090   11.3440   27.5910 O      26041 WAT       0.0953
  26042 WAT        24.9090   11.3440   27.8410 O      26042 WAT       0.0606
  26043 WAT        24.9090   11.5940   26.8410 O      26043 WAT       0.0866
  26044 WAT        24.9090   11.5940   27.0910 O      26044 WAT       0.1389
  26045 WAT        24.9090   11.5940   27.3410 O      26045 WAT       0.1633
  26046 WAT        24.9090   11.5940   27.5910 O      26046 WAT       0.1413
  26047 WAT        24.9090   11.5940   27.8410 O      26047 WAT       0.0898
  26048 WAT        24.9090   11.8440   17.0910 O      26048 WAT       0.0492
  26049 WAT        24.9090   11.8440   17.3410 O      26049 WAT       0.0495
  26050 WAT        24.9090   11.8440   26.8410 O      26050 WAT       0.0984
  26051 WAT        24.9090   11.8440   27.0910 O      26051 WAT       0.1652
  26052 WAT        24.9090   11.8440   27.3410 O      26052 WAT       0.2005
  26053 WAT        24.9090   11.8440   27.5910 O      26053 WAT       0.1766
  26054 WAT        24.9090   11.8440   27.8410 O      26054 WAT       0.1129
  26055 WAT        24.9090   11.8440   28.0910 O      26055 WAT       0.0522
  26056 WAT        24.9090   12.0940   16.5910 O      26056 WAT       0.0451
  26057 WAT        24.9090   12.0940   16.8410 O      26057 WAT       0.0533
  26058 WAT        24.9090   12.0940   17.0910 O      26058 WAT       0.0573
  26059 WAT        24.9090   12.0940   17.3410 O      26059 WAT       0.0554
  26060 WAT        24.9090   12.0940   17.5910 O      26060 WAT       0.0483
  26061 WAT        24.9090   12.0940   26.8410 O      26061 WAT       0.0929
  26062 WAT        24.9090   12.0940   27.0910 O      26062 WAT       0.1607
  26063 WAT        24.9090   12.0940   27.3410 O      26063 WAT       0.1994
  26064 WAT        24.9090   12.0940   27.5910 O      26064 WAT       0.1782
  26065 WAT        24.9090   12.0940   27.8410 O      26065 WAT       0.1148
  26066 WAT        24.9090   12.0940   28.0910 O      26066 WAT       0.0532
  26067 WAT        24.9090   12.3440   16.3410 O      26067 WAT       0.0452
  26068 WAT        24.9090   12.3440   16.5910 O      26068 WAT       0.0537
  26069 WAT        24.9090   12.3440   16.8410 O      26069 WAT       0.0602
  26070 WAT        24.9090   12.3440   17.0910 O      26070 WAT       0.0616
  26071 WAT        24.9090   12.3440   17.3410 O      26071 WAT       0.0571
  26072 WAT        24.9090   12.3440   17.5910 O      26072 WAT       0.0480
  26073 WAT        24.9090   12.3440   26.8410 O      26073 WAT       0.0713
  26074 WAT        24.9090   12.3440   27.0910 O      26074 WAT       0.1255
  26075 WAT        24.9090   12.3440   27.3410 O      26075 WAT       0.1578
  26076 WAT        24.9090   12.3440   27.5910 O      26076 WAT       0.1425
  26077 WAT        24.9090   12.3440   27.8410 O      26077 WAT       0.0925
  26078 WAT        24.9090   12.5940   16.3410 O      26078 WAT       0.0518
  26079 WAT        24.9090   12.5940   16.5910 O      26079 WAT       0.0589
  26080 WAT        24.9090   12.5940   16.8410 O      26080 WAT       0.0628
  26081 WAT        24.9090   12.5940   17.0910 O      26081 WAT       0.0612
  26082 WAT        24.9090   12.5940   17.3410 O      26082 WAT       0.0544
  26083 WAT        24.9090   12.5940   27.0910 O      26083 WAT       0.0782
  26084 WAT        24.9090   12.5940   27.3410 O      26084 WAT       0.0989
  26085 WAT        24.9090   12.5940   27.5910 O      26085 WAT       0.0900
  26086 WAT        24.9090   12.5940   27.8410 O      26086 WAT       0.0590
  26087 WAT        24.9090   12.8440   16.3410 O      26087 WAT       0.0511
  26088 WAT        24.9090   12.8440   16.5910 O      26088 WAT       0.0576
  26089 WAT        24.9090   12.8440   16.8410 O      26089 WAT       0.0596
  26090 WAT        24.9090   12.8440   17.0910 O      26090 WAT       0.0562
  26091 WAT        24.9090   12.8440   17.3410 O      26091 WAT       0.0483
  26092 WAT        24.9090   12.8440   27.3410 O      26092 WAT       0.0503
  26093 WAT        24.9090   12.8440   27.5910 O      26093 WAT       0.0464
  26094 WAT        24.9090   13.0940   16.5910 O      26094 WAT       0.0485
  26095 WAT        24.9090   13.0940   16.8410 O      26095 WAT       0.0504
  26096 WAT        24.9090   13.0940   17.0910 O      26096 WAT       0.0471
  26097 WAT        24.9090   13.3440   19.0910 O      26097 WAT       0.0455
  26098 WAT        24.9090   13.3440   19.3410 O      26098 WAT       0.0493
  26099 WAT        24.9090   13.3440   19.5910 O      26099 WAT       0.0492
  26100 WAT        24.9090   13.3440   19.8410 O      26100 WAT       0.0455
  26101 WAT        24.9090   13.5940   18.8410 O      26101 WAT       0.0509
  26102 WAT        24.9090   13.5940   19.0910 O      26102 WAT       0.0570
  26103 WAT        24.9090   13.5940   19.3410 O      26103 WAT       0.0584
  26104 WAT        24.9090   13.5940   19.5910 O      26104 WAT       0.0547
  26105 WAT        24.9090   13.5940   19.8410 O      26105 WAT       0.0472
  26106 WAT        24.9090   13.8440   12.5910 O      26106 WAT       0.0475
  26107 WAT        24.9090   13.8440   18.5910 O      26107 WAT       0.0557
  26108 WAT        24.9090   13.8440   18.8410 O      26108 WAT       0.0645
  26109 WAT        24.9090   13.8440   19.0910 O      26109 WAT       0.0675
  26110 WAT        24.9090   13.8440   19.3410 O      26110 WAT       0.0640
  26111 WAT        24.9090   13.8440   19.5910 O      26111 WAT       0.0553
  26112 WAT        24.9090   13.8440   28.0910 O      26112 WAT       0.0560
  26113 WAT        24.9090   13.8440   28.3410 O      26113 WAT       0.0696
  26114 WAT        24.9090   13.8440   28.5910 O      26114 WAT       0.0646
  26115 WAT        24.9090   14.0940   12.0910 O      26115 WAT       0.0497
  26116 WAT        24.9090   14.0940   12.3410 O      26116 WAT       0.0592
  26117 WAT        24.9090   14.0940   12.5910 O      26117 WAT       0.0600
  26118 WAT        24.9090   14.0940   12.8410 O      26118 WAT       0.0476
  26119 WAT        24.9090   14.0940   18.3410 O      26119 WAT       0.0551
  26120 WAT        24.9090   14.0940   18.5910 O      26120 WAT       0.0695
  26121 WAT        24.9090   14.0940   18.8410 O      26121 WAT       0.0766
  26122 WAT        24.9090   14.0940   19.0910 O      26122 WAT       0.0743
  26123 WAT        24.9090   14.0940   19.3410 O      26123 WAT       0.0644
  26124 WAT        24.9090   14.0940   19.5910 O      26124 WAT       0.0508
  26125 WAT        24.9090   14.0940   27.8410 O      26125 WAT       0.0466
  26126 WAT        24.9090   14.0940   28.0910 O      26126 WAT       0.0847
  26127 WAT        24.9090   14.0940   28.3410 O      26127 WAT       0.1165
  26128 WAT        24.9090   14.0940   28.5910 O      26128 WAT       0.1193
  26129 WAT        24.9090   14.0940   28.8410 O      26129 WAT       0.0901
  26130 WAT        24.9090   14.0940   29.0910 O      26130 WAT       0.0501
  26131 WAT        24.9090   14.3440   11.8410 O      26131 WAT       0.0520
  26132 WAT        24.9090   14.3440   12.0910 O      26132 WAT       0.0652
  26133 WAT        24.9090   14.3440   12.3410 O      26133 WAT       0.0752
  26134 WAT        24.9090   14.3440   12.5910 O      26134 WAT       0.0715
  26135 WAT        24.9090   14.3440   12.8410 O      26135 WAT       0.0519
  26136 WAT        24.9090   14.3440   18.3410 O      26136 WAT       0.0629
  26137 WAT        24.9090   14.3440   18.5910 O      26137 WAT       0.0789
  26138 WAT        24.9090   14.3440   18.8410 O      26138 WAT       0.0836
  26139 WAT        24.9090   14.3440   19.0910 O      26139 WAT       0.0757
  26140 WAT        24.9090   14.3440   19.3410 O      26140 WAT       0.0601
  26141 WAT        24.9090   14.3440   27.8410 O      26141 WAT       0.0524
  26142 WAT        24.9090   14.3440   28.0910 O      26142 WAT       0.1024
  26143 WAT        24.9090   14.3440   28.3410 O      26143 WAT       0.1513
  26144 WAT        24.9090   14.3440   28.5910 O      26144 WAT       0.1670
  26145 WAT        24.9090   14.3440   28.8410 O      26145 WAT       0.1367
  26146 WAT        24.9090   14.3440   29.0910 O      26146 WAT       0.0830
  26147 WAT        24.9090   14.5940   11.5910 O      26147 WAT       0.0464
  26148 WAT        24.9090   14.5940   11.8410 O      26148 WAT       0.0599
  26149 WAT        24.9090   14.5940   12.0910 O      26149 WAT       0.0766
  26150 WAT        24.9090   14.5940   12.3410 O      26150 WAT       0.0873
  26151 WAT        24.9090   14.5940   12.5910 O      26151 WAT       0.0798
  26152 WAT        24.9090   14.5940   12.8410 O      26152 WAT       0.0545
  26153 WAT        24.9090   14.5940   18.3410 O      26153 WAT       0.0648
  26154 WAT        24.9090   14.5940   18.5910 O      26154 WAT       0.0812
  26155 WAT        24.9090   14.5940   18.8410 O      26155 WAT       0.0838
  26156 WAT        24.9090   14.5940   19.0910 O      26156 WAT       0.0723
  26157 WAT        24.9090   14.5940   19.3410 O      26157 WAT       0.0534
  26158 WAT        24.9090   14.5940   27.8410 O      26158 WAT       0.0480
  26159 WAT        24.9090   14.5940   28.0910 O      26159 WAT       0.0977
  26160 WAT        24.9090   14.5940   28.3410 O      26160 WAT       0.1513
  26161 WAT        24.9090   14.5940   28.5910 O      26161 WAT       0.1767
  26162 WAT        24.9090   14.5940   28.8410 O      26162 WAT       0.1543
  26163 WAT        24.9090   14.5940   29.0910 O      26163 WAT       0.1009
  26164 WAT        24.9090   14.5940   29.3410 O      26164 WAT       0.0498
  26165 WAT        24.9090   14.8440   11.5910 O      26165 WAT       0.0455
  26166 WAT        24.9090   14.8440   11.8410 O      26166 WAT       0.0611
  26167 WAT        24.9090   14.8440   12.0910 O      26167 WAT       0.0799
  26168 WAT        24.9090   14.8440   12.3410 O      26168 WAT       0.0911
  26169 WAT        24.9090   14.8440   12.5910 O      26169 WAT       0.0818
  26170 WAT        24.9090   14.8440   12.8410 O      26170 WAT       0.0542
  26171 WAT        24.9090   14.8440   18.3410 O      26171 WAT       0.0604
  26172 WAT        24.9090   14.8440   18.5910 O      26172 WAT       0.0767
  26173 WAT        24.9090   14.8440   18.8410 O      26173 WAT       0.0789
  26174 WAT        24.9090   14.8440   19.0910 O      26174 WAT       0.0665
  26175 WAT        24.9090   14.8440   19.3410 O      26175 WAT       0.0468
  26176 WAT        24.9090   14.8440   28.0910 O      26176 WAT       0.0733
  26177 WAT        24.9090   14.8440   28.3410 O      26177 WAT       0.1167
  26178 WAT        24.9090   14.8440   28.5910 O      26178 WAT       0.1418
  26179 WAT        24.9090   14.8440   28.8410 O      26179 WAT       0.1302
  26180 WAT        24.9090   14.8440   29.0910 O      26180 WAT       0.0904
  26181 WAT        24.9090   14.8440   29.3410 O      26181 WAT       0.0479
  26182 WAT        24.9090   15.0940   11.8410 O      26182 WAT       0.0569
  26183 WAT        24.9090   15.0940   12.0910 O      26183 WAT       0.0750
  26184 WAT        24.9090   15.0940   12.3410 O      26184 WAT       0.0856
  26185 WAT        24.9090   15.0940   12.5910 O      26185 WAT       0.0763
  26186 WAT        24.9090   15.0940   12.8410 O      26186 WAT       0.0498
  26187 WAT        24.9090   15.0940   18.3410 O      26187 WAT       0.0512
  26188 WAT        24.9090   15.0940   18.5910 O      26188 WAT       0.0680
  26189 WAT        24.9090   15.0940   18.8410 O      26189 WAT       0.0718
  26190 WAT        24.9090   15.0940   19.0910 O      26190 WAT       0.0607
  26191 WAT        24.9090   15.0940   28.3410 O      26191 WAT       0.0698
  26192 WAT        24.9090   15.0940   28.5910 O      26192 WAT       0.0869
  26193 WAT        24.9090   15.0940   28.8410 O      26193 WAT       0.0827
  26194 WAT        24.9090   15.0940   29.0910 O      26194 WAT       0.0601
  26195 WAT        24.9090   15.3440   11.8410 O      26195 WAT       0.0528
  26196 WAT        24.9090   15.3440   12.0910 O      26196 WAT       0.0669
  26197 WAT        24.9090   15.3440   12.3410 O      26197 WAT       0.0745
  26198 WAT        24.9090   15.3440   12.5910 O      26198 WAT       0.0653
  26199 WAT        24.9090   15.3440   18.5910 O      26199 WAT       0.0576
  26200 WAT        24.9090   15.3440   18.8410 O      26200 WAT       0.0643
  26201 WAT        24.9090   15.3440   19.0910 O      26201 WAT       0.0562
  26202 WAT        24.9090   15.5940   10.5910 O      26202 WAT       0.0458
  26203 WAT        24.9090   15.5940   10.8410 O      26203 WAT       0.0455
  26204 WAT        24.9090   15.5940   11.3410 O      26204 WAT       0.0454
  26205 WAT        24.9090   15.5940   11.5910 O      26205 WAT       0.0485
  26206 WAT        24.9090   15.5940   11.8410 O      26206 WAT       0.0541
  26207 WAT        24.9090   15.5940   12.0910 O      26207 WAT       0.0608
  26208 WAT        24.9090   15.5940   12.3410 O      26208 WAT       0.0624
  26209 WAT        24.9090   15.5940   12.5910 O      26209 WAT       0.0520
  26210 WAT        24.9090   15.5940   18.5910 O      26210 WAT       0.0475
  26211 WAT        24.9090   15.5940   18.8410 O      26211 WAT       0.0577
  26212 WAT        24.9090   15.5940   19.0910 O      26212 WAT       0.0537
  26213 WAT        24.9090   15.5940   26.0910 O      26213 WAT       0.0705
  26214 WAT        24.9090   15.5940   26.3410 O      26214 WAT       0.0846
  26215 WAT        24.9090   15.5940   26.5910 O      26215 WAT       0.0769
  26216 WAT        24.9090   15.5940   26.8410 O      26216 WAT       0.0533
  26217 WAT        24.9090   15.8440    9.8410 O      26217 WAT       0.0567
  26218 WAT        24.9090   15.8440   10.0910 O      26218 WAT       0.0734
  26219 WAT        24.9090   15.8440   10.3410 O      26219 WAT       0.0825
  26220 WAT        24.9090   15.8440   10.5910 O      26220 WAT       0.0814
  26221 WAT        24.9090   15.8440   10.8410 O      26221 WAT       0.0737
  26222 WAT        24.9090   15.8440   11.0910 O      26222 WAT       0.0659
  26223 WAT        24.9090   15.8440   11.3410 O      26223 WAT       0.0613
  26224 WAT        24.9090   15.8440   11.5910 O      26224 WAT       0.0596
  26225 WAT        24.9090   15.8440   11.8410 O      26225 WAT       0.0591
  26226 WAT        24.9090   15.8440   12.0910 O      26226 WAT       0.0573
  26227 WAT        24.9090   15.8440   12.3410 O      26227 WAT       0.0512
  26228 WAT        24.9090   15.8440   18.8410 O      26228 WAT       0.0530
  26229 WAT        24.9090   15.8440   19.0910 O      26229 WAT       0.0539
  26230 WAT        24.9090   15.8440   25.8410 O      26230 WAT       0.0906
  26231 WAT        24.9090   15.8440   26.0910 O      26231 WAT       0.1470
  26232 WAT        24.9090   15.8440   26.3410 O      26232 WAT       0.1839
  26233 WAT        24.9090   15.8440   26.5910 O      26233 WAT       0.1749
  26234 WAT        24.9090   15.8440   26.8410 O      26234 WAT       0.1264
  26235 WAT        24.9090   15.8440   27.0910 O      26235 WAT       0.0702
  26236 WAT        24.9090   16.0940    9.3410 O      26236 WAT       0.0459
  26237 WAT        24.9090   16.0940    9.5910 O      26237 WAT       0.0708
  26238 WAT        24.9090   16.0940    9.8410 O      26238 WAT       0.0983
  26239 WAT        24.9090   16.0940   10.0910 O      26239 WAT       0.1191
  26240 WAT        24.9090   16.0940   10.3410 O      26240 WAT       0.1242
  26241 WAT        24.9090   16.0940   10.5910 O      26241 WAT       0.1127
  26242 WAT        24.9090   16.0940   10.8410 O      26242 WAT       0.0932
  26243 WAT        24.9090   16.0940   11.0910 O      26243 WAT       0.0763
  26244 WAT        24.9090   16.0940   11.3410 O      26244 WAT       0.0665
  26245 WAT        24.9090   16.0940   11.5910 O      26245 WAT       0.0616
  26246 WAT        24.9090   16.0940   11.8410 O      26246 WAT       0.0577
  26247 WAT        24.9090   16.0940   12.0910 O      26247 WAT       0.0509
  26248 WAT        24.9090   16.0940   18.8410 O      26248 WAT       0.0497
  26249 WAT        24.9090   16.0940   19.0910 O      26249 WAT       0.0561
  26250 WAT        24.9090   16.0940   19.3410 O      26250 WAT       0.0490
  26251 WAT        24.9090   16.0940   25.5910 O      26251 WAT       0.0578
  26252 WAT        24.9090   16.0940   25.8410 O      26252 WAT       0.1197
  26253 WAT        24.9090   16.0940   26.0910 O      26253 WAT       0.2024
  26254 WAT        24.9090   16.0940   26.3410 O      26254 WAT       0.2665
  26255 WAT        24.9090   16.0940   26.5910 O      26255 WAT       0.2681
  26256 WAT        24.9090   16.0940   26.8410 O      26256 WAT       0.2049
  26257 WAT        24.9090   16.0940   27.0910 O      26257 WAT       0.1194
  26258 WAT        24.9090   16.0940   27.3410 O      26258 WAT       0.0541
  26259 WAT        24.9090   16.3440    9.3410 O      26259 WAT       0.0658
  26260 WAT        24.9090   16.3440    9.5910 O      26260 WAT       0.0952
  26261 WAT        24.9090   16.3440    9.8410 O      26261 WAT       0.1229
  26262 WAT        24.9090   16.3440   10.0910 O      26262 WAT       0.1384
  26263 WAT        24.9090   16.3440   10.3410 O      26263 WAT       0.1340
  26264 WAT        24.9090   16.3440   10.5910 O      26264 WAT       0.1119
  26265 WAT        24.9090   16.3440   10.8410 O      26265 WAT       0.0844
  26266 WAT        24.9090   16.3440   11.0910 O      26266 WAT       0.0633
  26267 WAT        24.9090   16.3440   11.3410 O      26267 WAT       0.0518
  26268 WAT        24.9090   16.3440   11.5910 O      26268 WAT       0.0469
  26269 WAT        24.9090   16.3440   18.8410 O      26269 WAT       0.0467
  26270 WAT        24.9090   16.3440   19.0910 O      26270 WAT       0.0590
  26271 WAT        24.9090   16.3440   19.3410 O      26271 WAT       0.0573
  26272 WAT        24.9090   16.3440   21.8410 O      26272 WAT       0.0502
  26273 WAT        24.9090   16.3440   22.0910 O      26273 WAT       0.0492
  26274 WAT        24.9090   16.3440   25.5910 O      26274 WAT       0.0489
  26275 WAT        24.9090   16.3440   25.8410 O      26275 WAT       0.1047
  26276 WAT        24.9090   16.3440   26.0910 O      26276 WAT       0.1862
  26277 WAT        24.9090   16.3440   26.3410 O      26277 WAT       0.2611
  26278 WAT        24.9090   16.3440   26.5910 O      26278 WAT       0.2820
  26279 WAT        24.9090   16.3440   26.8410 O      26279 WAT       0.2317
  26280 WAT        24.9090   16.3440   27.0910 O      26280 WAT       0.1445
  26281 WAT        24.9090   16.3440   27.3410 O      26281 WAT       0.0692
  26282 WAT        24.9090   16.5940    9.0910 O      26282 WAT       0.0467
  26283 WAT        24.9090   16.5940    9.3410 O      26283 WAT       0.0676
  26284 WAT        24.9090   16.5940    9.5910 O      26284 WAT       0.0894
  26285 WAT        24.9090   16.5940    9.8410 O      26285 WAT       0.1063
  26286 WAT        24.9090   16.5940   10.0910 O      26286 WAT       0.1115
  26287 WAT        24.9090   16.5940   10.3410 O      26287 WAT       0.1008
  26288 WAT        24.9090   16.5940   10.5910 O      26288 WAT       0.0779
  26289 WAT        24.9090   16.5940   10.8410 O      26289 WAT       0.0536
  26290 WAT        24.9090   16.5940   19.0910 O      26290 WAT       0.0602
  26291 WAT        24.9090   16.5940   19.3410 O      26291 WAT       0.0648
  26292 WAT        24.9090   16.5940   19.5910 O      26292 WAT       0.0562
  26293 WAT        24.9090   16.5940   21.5910 O      26293 WAT       0.0572
  26294 WAT        24.9090   16.5940   21.8410 O      26294 WAT       0.0690
  26295 WAT        24.9090   16.5940   22.0910 O      26295 WAT       0.0693
  26296 WAT        24.9090   16.5940   22.3410 O      26296 WAT       0.0587
  26297 WAT        24.9090   16.5940   25.8410 O      26297 WAT       0.0615
  26298 WAT        24.9090   16.5940   26.0910 O      26298 WAT       0.1170
  26299 WAT        24.9090   16.5940   26.3410 O      26299 WAT       0.1777
  26300 WAT        24.9090   16.5940   26.5910 O      26300 WAT       0.2096
  26301 WAT        24.9090   16.5940   26.8410 O      26301 WAT       0.1886
  26302 WAT        24.9090   16.5940   27.0910 O      26302 WAT       0.1284
  26303 WAT        24.9090   16.5940   27.3410 O      26303 WAT       0.0662
  26304 WAT        24.9090   16.8440    6.8410 O      26304 WAT       0.0475
  26305 WAT        24.9090   16.8440    7.0910 O      26305 WAT       0.0477
  26306 WAT        24.9090   16.8440    9.3410 O      26306 WAT       0.0484
  26307 WAT        24.9090   16.8440    9.5910 O      26307 WAT       0.0574
  26308 WAT        24.9090   16.8440    9.8410 O      26308 WAT       0.0625
  26309 WAT        24.9090   16.8440   10.0910 O      26309 WAT       0.0612
  26310 WAT        24.9090   16.8440   10.3410 O      26310 WAT       0.0520
  26311 WAT        24.9090   16.8440   19.0910 O      26311 WAT       0.0605
  26312 WAT        24.9090   16.8440   19.3410 O      26312 WAT       0.0711
  26313 WAT        24.9090   16.8440   19.5910 O      26313 WAT       0.0680
  26314 WAT        24.9090   16.8440   19.8410 O      26314 WAT       0.0565
  26315 WAT        24.9090   16.8440   21.3410 O      26315 WAT       0.0467
  26316 WAT        24.9090   16.8440   21.5910 O      26316 WAT       0.0664
  26317 WAT        24.9090   16.8440   21.8410 O      26317 WAT       0.0814
  26318 WAT        24.9090   16.8440   22.0910 O      26318 WAT       0.0825
  26319 WAT        24.9090   16.8440   22.3410 O      26319 WAT       0.0692
  26320 WAT        24.9090   16.8440   22.5910 O      26320 WAT       0.0495
  26321 WAT        24.9090   16.8440   26.0910 O      26321 WAT       0.0517
  26322 WAT        24.9090   16.8440   26.3410 O      26322 WAT       0.0873
  26323 WAT        24.9090   16.8440   26.5910 O      26323 WAT       0.1147
  26324 WAT        24.9090   16.8440   26.8410 O      26324 WAT       0.1148
  26325 WAT        24.9090   16.8440   27.0910 O      26325 WAT       0.0862
  26326 WAT        24.9090   16.8440   27.3410 O      26326 WAT       0.0484
  26327 WAT        24.9090   17.0940    6.3410 O      26327 WAT       0.0480
  26328 WAT        24.9090   17.0940    6.5910 O      26328 WAT       0.0534
  26329 WAT        24.9090   17.0940    6.8410 O      26329 WAT       0.0554
  26330 WAT        24.9090   17.0940    7.0910 O      26330 WAT       0.0518
  26331 WAT        24.9090   17.0940   19.0910 O      26331 WAT       0.0652
  26332 WAT        24.9090   17.0940   19.3410 O      26332 WAT       0.0800
  26333 WAT        24.9090   17.0940   19.5910 O      26333 WAT       0.0809
  26334 WAT        24.9090   17.0940   19.8410 O      26334 WAT       0.0719
  26335 WAT        24.9090   17.0940   20.0910 O      26335 WAT       0.0600
  26336 WAT        24.9090   17.0940   20.3410 O      26336 WAT       0.0491
  26337 WAT        24.9090   17.0940   21.3410 O      26337 WAT       0.0462
  26338 WAT        24.9090   17.0940   21.5910 O      26338 WAT       0.0629
  26339 WAT        24.9090   17.0940   21.8410 O      26339 WAT       0.0768
  26340 WAT        24.9090   17.0940   22.0910 O      26340 WAT       0.0778
  26341 WAT        24.9090   17.0940   22.3410 O      26341 WAT       0.0643
  26342 WAT        24.9090   17.0940   26.5910 O      26342 WAT       0.0480
  26343 WAT        24.9090   17.0940   26.8410 O      26343 WAT       0.0539
  26344 WAT        24.9090   17.3440    6.3410 O      26344 WAT       0.0508
  26345 WAT        24.9090   17.3440    6.5910 O      26345 WAT       0.0543
  26346 WAT        24.9090   17.3440    6.8410 O      26346 WAT       0.0533
  26347 WAT        24.9090   17.3440    7.0910 O      26347 WAT       0.0468
  26348 WAT        24.9090   17.3440   18.8410 O      26348 WAT       0.0500
  26349 WAT        24.9090   17.3440   19.0910 O      26349 WAT       0.0793
  26350 WAT        24.9090   17.3440   19.3410 O      26350 WAT       0.0970
  26351 WAT        24.9090   17.3440   19.5910 O      26351 WAT       0.0972
  26352 WAT        24.9090   17.3440   19.8410 O      26352 WAT       0.0857
  26353 WAT        24.9090   17.3440   20.0910 O      26353 WAT       0.0717
  26354 WAT        24.9090   17.3440   20.3410 O      26354 WAT       0.0595
  26355 WAT        24.9090   17.3440   20.5910 O      26355 WAT       0.0485
  26356 WAT        24.9090   17.3440   21.5910 O      26356 WAT       0.0470
  26357 WAT        24.9090   17.3440   21.8410 O      26357 WAT       0.0555
  26358 WAT        24.9090   17.3440   22.0910 O      26358 WAT       0.0554
  26359 WAT        24.9090   17.3440   22.3410 O      26359 WAT       0.0451
  26360 WAT        24.9090   17.5940   18.8410 O      26360 WAT       0.0617
  26361 WAT        24.9090   17.5940   19.0910 O      26361 WAT       0.0984
  26362 WAT        24.9090   17.5940   19.3410 O      26362 WAT       0.1195
  26363 WAT        24.9090   17.5940   19.5910 O      26363 WAT       0.1157
  26364 WAT        24.9090   17.5940   19.8410 O      26364 WAT       0.0956
  26365 WAT        24.9090   17.5940   20.0910 O      26365 WAT       0.0745
  26366 WAT        24.9090   17.5940   20.3410 O      26366 WAT       0.0592
  26367 WAT        24.9090   17.5940   20.5910 O      26367 WAT       0.0472
  26368 WAT        24.9090   17.8440   18.8410 O      26368 WAT       0.0680
  26369 WAT        24.9090   17.8440   19.0910 O      26369 WAT       0.1098
  26370 WAT        24.9090   17.8440   19.3410 O      26370 WAT       0.1342
  26371 WAT        24.9090   17.8440   19.5910 O      26371 WAT       0.1271
  26372 WAT        24.9090   17.8440   19.8410 O      26372 WAT       0.0978
  26373 WAT        24.9090   17.8440   20.0910 O      26373 WAT       0.0677
  26374 WAT        24.9090   17.8440   20.3410 O      26374 WAT       0.0482
  26375 WAT        24.9090   18.0940   18.8410 O      26375 WAT       0.0663
  26376 WAT        24.9090   18.0940   19.0910 O      26376 WAT       0.1066
  26377 WAT        24.9090   18.0940   19.3410 O      26377 WAT       0.1307
  26378 WAT        24.9090   18.0940   19.5910 O      26378 WAT       0.1223
  26379 WAT        24.9090   18.0940   19.8410 O      26379 WAT       0.0891
  26380 WAT        24.9090   18.0940   20.0910 O      26380 WAT       0.0544
  26381 WAT        24.9090   18.3440   18.8410 O      26381 WAT       0.0617
  26382 WAT        24.9090   18.3440   19.0910 O      26382 WAT       0.0948
  26383 WAT        24.9090   18.3440   19.3410 O      26383 WAT       0.1134
  26384 WAT        24.9090   18.3440   19.5910 O      26384 WAT       0.1036
  26385 WAT        24.9090   18.3440   19.8410 O      26385 WAT       0.0719
  26386 WAT        24.9090   18.5940   18.8410 O      26386 WAT       0.0605
  26387 WAT        24.9090   18.5940   19.0910 O      26387 WAT       0.0839
  26388 WAT        24.9090   18.5940   19.3410 O      26388 WAT       0.0933
  26389 WAT        24.9090   18.5940   19.5910 O      26389 WAT       0.0804
  26390 WAT        24.9090   18.5940   19.8410 O      26390 WAT       0.0522
  26391 WAT        24.9090   18.8440   18.5910 O      26391 WAT       0.0454
  26392 WAT        24.9090   18.8440   18.8410 O      26392 WAT       0.0648
  26393 WAT        24.9090   18.8440   19.0910 O      26393 WAT       0.0776
  26394 WAT        24.9090   18.8440   19.3410 O      26394 WAT       0.0762
  26395 WAT        24.9090   18.8440   19.5910 O      26395 WAT       0.0588
  26396 WAT        24.9090   18.8440   26.8410 O      26396 WAT       0.0721
  26397 WAT        24.9090   18.8440   27.0910 O      26397 WAT       0.0790
  26398 WAT        24.9090   18.8440   27.3410 O      26398 WAT       0.0548
  26399 WAT        24.9090   19.0940   18.5910 O      26399 WAT       0.0589
  26400 WAT        24.9090   19.0940   18.8410 O      26400 WAT       0.0726
  26401 WAT        24.9090   19.0940   19.0910 O      26401 WAT       0.0747
  26402 WAT        24.9090   19.0940   19.3410 O      26402 WAT       0.0626
  26403 WAT        24.9090   19.0940   26.5910 O      26403 WAT       0.0808
  26404 WAT        24.9090   19.0940   26.8410 O      26404 WAT       0.1345
  26405 WAT        24.9090   19.0940   27.0910 O      26405 WAT       0.1421
  26406 WAT        24.9090   19.0940   27.3410 O      26406 WAT       0.0953
  26407 WAT        24.9090   19.3440    5.8410 O      26407 WAT       0.0480
  26408 WAT        24.9090   19.3440    6.0910 O      26408 WAT       0.0498
  26409 WAT        24.9090   19.3440   18.3410 O      26409 WAT       0.0548
  26410 WAT        24.9090   19.3440   18.5910 O      26410 WAT       0.0732
  26411 WAT        24.9090   19.3440   18.8410 O      26411 WAT       0.0808
  26412 WAT        24.9090   19.3440   19.0910 O      26412 WAT       0.0729
  26413 WAT        24.9090   19.3440   19.3410 O      26413 WAT       0.0524
  26414 WAT        24.9090   19.3440   26.5910 O      26414 WAT       0.1103
  26415 WAT        24.9090   19.3440   26.8410 O      26415 WAT       0.1784
  26416 WAT        24.9090   19.3440   27.0910 O      26416 WAT       0.1829
  26417 WAT        24.9090   19.3440   27.3410 O      26417 WAT       0.1189
  26418 WAT        24.9090   19.3440   27.5910 O      26418 WAT       0.0486
  26419 WAT        24.9090   19.5940    5.5910 O      26419 WAT       0.0491
  26420 WAT        24.9090   19.5940    5.8410 O      26420 WAT       0.0606
  26421 WAT        24.9090   19.5940    6.0910 O      26421 WAT       0.0577
  26422 WAT        24.9090   19.5940   18.3410 O      26422 WAT       0.0675
  26423 WAT        24.9090   19.5940   18.5910 O      26423 WAT       0.0844
  26424 WAT        24.9090   19.5940   18.8410 O      26424 WAT       0.0861
  26425 WAT        24.9090   19.5940   19.0910 O      26425 WAT       0.0701
  26426 WAT        24.9090   19.5940   26.5910 O      26426 WAT       0.1039
  26427 WAT        24.9090   19.5940   26.8410 O      26427 WAT       0.1650
  26428 WAT        24.9090   19.5940   27.0910 O      26428 WAT       0.1654
  26429 WAT        24.9090   19.5940   27.3410 O      26429 WAT       0.1048
  26430 WAT        24.9090   19.8440    5.5910 O      26430 WAT       0.0529
  26431 WAT        24.9090   19.8440    5.8410 O      26431 WAT       0.0605
  26432 WAT        24.9090   19.8440    6.0910 O      26432 WAT       0.0520
  26433 WAT        24.9090   19.8440   18.0910 O      26433 WAT       0.0490
  26434 WAT        24.9090   19.8440   18.3410 O      26434 WAT       0.0731
  26435 WAT        24.9090   19.8440   18.5910 O      26435 WAT       0.0884
  26436 WAT        24.9090   19.8440   18.8410 O      26436 WAT       0.0856
  26437 WAT        24.9090   19.8440   19.0910 O      26437 WAT       0.0645
  26438 WAT        24.9090   19.8440   26.5910 O      26438 WAT       0.0666
  26439 WAT        24.9090   19.8440   26.8410 O      26439 WAT       0.1048
  26440 WAT        24.9090   19.8440   27.0910 O      26440 WAT       0.1036
  26441 WAT        24.9090   19.8440   27.3410 O      26441 WAT       0.0645
  26442 WAT        24.9090   20.0940    5.5910 O      26442 WAT       0.0451
  26443 WAT        24.9090   20.0940    5.8410 O      26443 WAT       0.0464
  26444 WAT        24.9090   20.0940   18.0910 O      26444 WAT       0.0453
  26445 WAT        24.9090   20.0940   18.3410 O      26445 WAT       0.0683
  26446 WAT        24.9090   20.0940   18.5910 O      26446 WAT       0.0821
  26447 WAT        24.9090   20.0940   18.8410 O      26447 WAT       0.0771
  26448 WAT        24.9090   20.0940   19.0910 O      26448 WAT       0.0550
  26449 WAT        24.9090   20.0940   26.8410 O      26449 WAT       0.0452
  26450 WAT        24.9090   20.3440   18.3410 O      26450 WAT       0.0533
  26451 WAT        24.9090   20.3440   18.5910 O      26451 WAT       0.0652
  26452 WAT        24.9090   20.3440   18.8410 O      26452 WAT       0.0608
  26453 WAT        24.9090   21.0940    3.3410 O      26453 WAT       0.0552
  26454 WAT        24.9090   21.0940    3.5910 O      26454 WAT       0.0695
  26455 WAT        24.9090   21.0940    3.8410 O      26455 WAT       0.0758
  26456 WAT        24.9090   21.0940    4.0910 O      26456 WAT       0.0717
  26457 WAT        24.9090   21.0940    4.3410 O      26457 WAT       0.0587
  26458 WAT        24.9090   21.3440    2.8410 O      26458 WAT       0.0471
  26459 WAT        24.9090   21.3440    3.0910 O      26459 WAT       0.0793
  26460 WAT        24.9090   21.3440    3.3410 O      26460 WAT       0.1098
  26461 WAT        24.9090   21.3440    3.5910 O      26461 WAT       0.1224
  26462 WAT        24.9090   21.3440    3.8410 O      26462 WAT       0.1125
  26463 WAT        24.9090   21.3440    4.0910 O      26463 WAT       0.0879
  26464 WAT        24.9090   21.3440    4.3410 O      26464 WAT       0.0593
  26465 WAT        24.9090   21.5940    2.8410 O      26465 WAT       0.0828
  26466 WAT        24.9090   21.5940    3.0910 O      26466 WAT       0.1359
  26467 WAT        24.9090   21.5940    3.3410 O      26467 WAT       0.1705
  26468 WAT        24.9090   21.5940    3.5910 O      26468 WAT       0.1642
  26469 WAT        24.9090   21.5940    3.8410 O      26469 WAT       0.1252
  26470 WAT        24.9090   21.5940    4.0910 O      26470 WAT       0.0789
  26471 WAT        24.9090   21.8440    2.5910 O      26471 WAT       0.0587
  26472 WAT        24.9090   21.8440    2.8410 O      26472 WAT       0.1205
  26473 WAT        24.9090   21.8440    3.0910 O      26473 WAT       0.1838
  26474 WAT        24.9090   21.8440    3.3410 O      26474 WAT       0.2053
  26475 WAT        24.9090   21.8440    3.5910 O      26475 WAT       0.1696
  26476 WAT        24.9090   21.8440    3.8410 O      26476 WAT       0.1066
  26477 WAT        24.9090   21.8440    4.0910 O      26477 WAT       0.0533
  26478 WAT        24.9090   22.0940    2.5910 O      26478 WAT       0.0711
  26479 WAT        24.9090   22.0940    2.8410 O      26479 WAT       0.1389
  26480 WAT        24.9090   22.0940    3.0910 O      26480 WAT       0.1942
  26481 WAT        24.9090   22.0940    3.3410 O      26481 WAT       0.1929
  26482 WAT        24.9090   22.0940    3.5910 O      26482 WAT       0.1373
  26483 WAT        24.9090   22.0940    3.8410 O      26483 WAT       0.0714
  26484 WAT        24.9090   22.0940   27.5910 O      26484 WAT       0.0546
  26485 WAT        24.9090   22.0940   27.8410 O      26485 WAT       0.0715
  26486 WAT        24.9090   22.0940   28.0910 O      26486 WAT       0.0589
  26487 WAT        24.9090   22.3440    2.5910 O      26487 WAT       0.0705
  26488 WAT        24.9090   22.3440    2.8410 O      26488 WAT       0.1282
  26489 WAT        24.9090   22.3440    3.0910 O      26489 WAT       0.1628
  26490 WAT        24.9090   22.3440    3.3410 O      26490 WAT       0.1439
  26491 WAT        24.9090   22.3440    3.5910 O      26491 WAT       0.0887
  26492 WAT        24.9090   22.3440   27.3410 O      26492 WAT       0.0518
  26493 WAT        24.9090   22.3440   27.5910 O      26493 WAT       0.1114
  26494 WAT        24.9090   22.3440   27.8410 O      26494 WAT       0.1492
  26495 WAT        24.9090   22.3440   28.0910 O      26495 WAT       0.1262
  26496 WAT        24.9090   22.3440   28.3410 O      26496 WAT       0.0683
  26497 WAT        24.9090   22.5940    2.5910 O      26497 WAT       0.0611
  26498 WAT        24.9090   22.5940    2.8410 O      26498 WAT       0.1011
  26499 WAT        24.9090   22.5940    3.0910 O      26499 WAT       0.1150
  26500 WAT        24.9090   22.5940    3.3410 O      26500 WAT       0.0895
  26501 WAT        24.9090   22.5940    3.5910 O      26501 WAT       0.0475
  26502 WAT        24.9090   22.5940   27.3410 O      26502 WAT       0.0721
  26503 WAT        24.9090   22.5940   27.5910 O      26503 WAT       0.1559
  26504 WAT        24.9090   22.5940   27.8410 O      26504 WAT       0.2116
  26505 WAT        24.9090   22.5940   28.0910 O      26505 WAT       0.1820
  26506 WAT        24.9090   22.5940   28.3410 O      26506 WAT       0.1013
  26507 WAT        24.9090   22.8440    2.5910 O      26507 WAT       0.0517
  26508 WAT        24.9090   22.8440    2.8410 O      26508 WAT       0.0775
  26509 WAT        24.9090   22.8440    3.0910 O      26509 WAT       0.0779
  26510 WAT        24.9090   22.8440    3.3410 O      26510 WAT       0.0524
  26511 WAT        24.9090   22.8440   19.3410 O      26511 WAT       0.0460
  26512 WAT        24.9090   22.8440   19.5910 O      26512 WAT       0.0551
  26513 WAT        24.9090   22.8440   19.8410 O      26513 WAT       0.0461
  26514 WAT        24.9090   22.8440   27.3410 O      26514 WAT       0.0702
  26515 WAT        24.9090   22.8440   27.5910 O      26515 WAT       0.1495
  26516 WAT        24.9090   22.8440   27.8410 O      26516 WAT       0.2024
  26517 WAT        24.9090   22.8440   28.0910 O      26517 WAT       0.1757
  26518 WAT        24.9090   22.8440   28.3410 O      26518 WAT       0.1002
  26519 WAT        24.9090   23.0940    2.8410 O      26519 WAT       0.0626
  26520 WAT        24.9090   23.0940    3.0910 O      26520 WAT       0.0571
  26521 WAT        24.9090   23.0940   19.3410 O      26521 WAT       0.0499
  26522 WAT        24.9090   23.0940   19.5910 O      26522 WAT       0.0647
  26523 WAT        24.9090   23.0940   19.8410 O      26523 WAT       0.0590
  26524 WAT        24.9090   23.0940   27.3410 O      26524 WAT       0.0535
  26525 WAT        24.9090   23.0940   27.5910 O      26525 WAT       0.1040
  26526 WAT        24.9090   23.0940   27.8410 O      26526 WAT       0.1349
  26527 WAT        24.9090   23.0940   28.0910 O      26527 WAT       0.1157
  26528 WAT        24.9090   23.0940   28.3410 O      26528 WAT       0.0673
  26529 WAT        24.9090   23.3440    2.8410 O      26529 WAT       0.0496
  26530 WAT        24.9090   23.3440   19.3410 O      26530 WAT       0.0507
  26531 WAT        24.9090   23.3440   19.5910 O      26531 WAT       0.0690
  26532 WAT        24.9090   23.3440   19.8410 O      26532 WAT       0.0673
  26533 WAT        24.9090   23.3440   20.0910 O      26533 WAT       0.0482
  26534 WAT        24.9090   23.3440   27.5910 O      26534 WAT       0.0645
  26535 WAT        24.9090   23.3440   27.8410 O      26535 WAT       0.0713
  26536 WAT        24.9090   23.3440   28.0910 O      26536 WAT       0.0566
  26537 WAT        24.9090   23.5940   19.3410 O      26537 WAT       0.0485
  26538 WAT        24.9090   23.5940   19.5910 O      26538 WAT       0.0675
  26539 WAT        24.9090   23.5940   19.8410 O      26539 WAT       0.0688
  26540 WAT        24.9090   23.5940   20.0910 O      26540 WAT       0.0532
  26541 WAT        24.9090   23.5940   27.5910 O      26541 WAT       0.0485
  26542 WAT        24.9090   23.8440   19.5910 O      26542 WAT       0.0617
  26543 WAT        24.9090   23.8440   19.8410 O      26543 WAT       0.0643
  26544 WAT        24.9090   23.8440   20.0910 O      26544 WAT       0.0526
  26545 WAT        24.9090   23.8440   27.3410 O      26545 WAT       0.0488
  26546 WAT        24.9090   24.0940   19.5910 O      26546 WAT       0.0533
  26547 WAT        24.9090   24.0940   19.8410 O      26547 WAT       0.0553
  26548 WAT        24.9090   24.0940   20.0910 O      26548 WAT       0.0469
  26549 WAT        24.9090   24.5940   27.8410 O      26549 WAT       0.0460
  26550 WAT        24.9090   24.5940   28.0910 O      26550 WAT       0.0507
  26551 WAT        24.9090   24.5940   28.3410 O      26551 WAT       0.0499
  26552 WAT        24.9090   24.8440   27.3410 O      26552 WAT       0.0469
  26553 WAT        24.9090   24.8440   27.5910 O      26553 WAT       0.0578
  26554 WAT        24.9090   24.8440   27.8410 O      26554 WAT       0.0695
  26555 WAT        24.9090   24.8440   28.0910 O      26555 WAT       0.0773
  26556 WAT        24.9090   24.8440   28.3410 O      26556 WAT       0.0762
  26557 WAT        24.9090   24.8440   28.5910 O      26557 WAT       0.0665
  26558 WAT        24.9090   24.8440   28.8410 O      26558 WAT       0.0527
  26559 WAT        24.9090   25.0940   27.0910 O      26559 WAT       0.0571
  26560 WAT        24.9090   25.0940   27.3410 O      26560 WAT       0.0706
  26561 WAT        24.9090   25.0940   27.5910 O      26561 WAT       0.0829
  26562 WAT        24.9090   25.0940   27.8410 O      26562 WAT       0.0936
  26563 WAT        24.9090   25.0940   28.0910 O      26563 WAT       0.0985
  26564 WAT        24.9090   25.0940   28.3410 O      26564 WAT       0.0934
  26565 WAT        24.9090   25.0940   28.5910 O      26565 WAT       0.0790
  26566 WAT        24.9090   25.0940   28.8410 O      26566 WAT       0.0605
  26567 WAT        24.9090   25.3440   23.0910 O      26567 WAT       0.0523
  26568 WAT        24.9090   25.3440   23.3410 O      26568 WAT       0.0548
  26569 WAT        24.9090   25.3440   23.5910 O      26569 WAT       0.0531
  26570 WAT        24.9090   25.3440   23.8410 O      26570 WAT       0.0496
  26571 WAT        24.9090   25.3440   24.0910 O      26571 WAT       0.0458
  26572 WAT        24.9090   25.3440   26.8410 O      26572 WAT       0.0562
  26573 WAT        24.9090   25.3440   27.0910 O      26573 WAT       0.0747
  26574 WAT        24.9090   25.3440   27.3410 O      26574 WAT       0.0894
  26575 WAT        24.9090   25.3440   27.5910 O      26575 WAT       0.0984
  26576 WAT        24.9090   25.3440   27.8410 O      26576 WAT       0.1023
  26577 WAT        24.9090   25.3440   28.0910 O      26577 WAT       0.0998
  26578 WAT        24.9090   25.3440   28.3410 O      26578 WAT       0.0891
  26579 WAT        24.9090   25.3440   28.5910 O      26579 WAT       0.0718
  26580 WAT        24.9090   25.3440   28.8410 O      26580 WAT       0.0524
  26581 WAT        24.9090   25.5940   22.3410 O      26581 WAT       0.0534
  26582 WAT        24.9090   25.5940   22.5910 O      26582 WAT       0.0746
  26583 WAT        24.9090   25.5940   22.8410 O      26583 WAT       0.0924
  26584 WAT        24.9090   25.5940   23.0910 O      26584 WAT       0.1015
  26585 WAT        24.9090   25.5940   23.3410 O      26585 WAT       0.1000
  26586 WAT        24.9090   25.5940   23.5910 O      26586 WAT       0.0911
  26587 WAT        24.9090   25.5940   23.8410 O      26587 WAT       0.0798
  26588 WAT        24.9090   25.5940   24.0910 O      26588 WAT       0.0692
  26589 WAT        24.9090   25.5940   24.3410 O      26589 WAT       0.0587
  26590 WAT        24.9090   25.5940   24.5910 O      26590 WAT       0.0474
  26591 WAT        24.9090   25.5940   26.5910 O      26591 WAT       0.0470
  26592 WAT        24.9090   25.5940   26.8410 O      26592 WAT       0.0622
  26593 WAT        24.9090   25.5940   27.0910 O      26593 WAT       0.0784
  26594 WAT        24.9090   25.5940   27.3410 O      26594 WAT       0.0895
  26595 WAT        24.9090   25.5940   27.5910 O      26595 WAT       0.0922
  26596 WAT        24.9090   25.5940   27.8410 O      26596 WAT       0.0881
  26597 WAT        24.9090   25.5940   28.0910 O      26597 WAT       0.0789
  26598 WAT        24.9090   25.5940   28.3410 O      26598 WAT       0.0653
  26599 WAT        24.9090   25.5940   28.5910 O      26599 WAT       0.0494
  26600 WAT        24.9090   25.8440   22.0910 O      26600 WAT       0.0662
  26601 WAT        24.9090   25.8440   22.3410 O      26601 WAT       0.0974
  26602 WAT        24.9090   25.8440   22.5910 O      26602 WAT       0.1265
  26603 WAT        24.9090   25.8440   22.8410 O      26603 WAT       0.1435
  26604 WAT        24.9090   25.8440   23.0910 O      26604 WAT       0.1444
  26605 WAT        24.9090   25.8440   23.3410 O      26605 WAT       0.1321
  26606 WAT        24.9090   25.8440   23.5910 O      26606 WAT       0.1136
  26607 WAT        24.9090   25.8440   23.8410 O      26607 WAT       0.0955
  26608 WAT        24.9090   25.8440   24.0910 O      26608 WAT       0.0813
  26609 WAT        24.9090   25.8440   24.3410 O      26609 WAT       0.0691
  26610 WAT        24.9090   25.8440   24.5910 O      26610 WAT       0.0564
  26611 WAT        24.9090   25.8440   26.3410 O      26611 WAT       0.0462
  26612 WAT        24.9090   25.8440   26.5910 O      26612 WAT       0.0518
  26613 WAT        24.9090   25.8440   26.8410 O      26613 WAT       0.0606
  26614 WAT        24.9090   25.8440   27.0910 O      26614 WAT       0.0695
  26615 WAT        24.9090   25.8440   27.3410 O      26615 WAT       0.0738
  26616 WAT        24.9090   25.8440   27.5910 O      26616 WAT       0.0706
  26617 WAT        24.9090   25.8440   27.8410 O      26617 WAT       0.0616
  26618 WAT        24.9090   25.8440   28.0910 O      26618 WAT       0.0500
  26619 WAT        24.9090   26.0940   16.0910 O      26619 WAT       0.0627
  26620 WAT        24.9090   26.0940   16.3410 O      26620 WAT       0.0781
  26621 WAT        24.9090   26.0940   16.5910 O      26621 WAT       0.0712
  26622 WAT        24.9090   26.0940   16.8410 O      26622 WAT       0.0483
  26623 WAT        24.9090   26.0940   21.8410 O      26623 WAT       0.0597
  26624 WAT        24.9090   26.0940   22.0910 O      26624 WAT       0.0926
  26625 WAT        24.9090   26.0940   22.3410 O      26625 WAT       0.1294
  26626 WAT        24.9090   26.0940   22.5910 O      26626 WAT       0.1560
  26627 WAT        24.9090   26.0940   22.8410 O      26627 WAT       0.1614
  26628 WAT        24.9090   26.0940   23.0910 O      26628 WAT       0.1473
  26629 WAT        24.9090   26.0940   23.3410 O      26629 WAT       0.1235
  26630 WAT        24.9090   26.0940   23.5910 O      26630 WAT       0.0993
  26631 WAT        24.9090   26.0940   23.8410 O      26631 WAT       0.0802
  26632 WAT        24.9090   26.0940   24.0910 O      26632 WAT       0.0678
  26633 WAT        24.9090   26.0940   24.3410 O      26633 WAT       0.0594
  26634 WAT        24.9090   26.0940   24.5910 O      26634 WAT       0.0512
  26635 WAT        24.9090   26.0940   25.5910 O      26635 WAT       0.0465
  26636 WAT        24.9090   26.0940   25.8410 O      26636 WAT       0.0512
  26637 WAT        24.9090   26.0940   26.0910 O      26637 WAT       0.0525
  26638 WAT        24.9090   26.0940   26.3410 O      26638 WAT       0.0520
  26639 WAT        24.9090   26.0940   26.5910 O      26639 WAT       0.0522
  26640 WAT        24.9090   26.0940   26.8410 O      26640 WAT       0.0542
  26641 WAT        24.9090   26.0940   27.0910 O      26641 WAT       0.0562
  26642 WAT        24.9090   26.0940   27.3410 O      26642 WAT       0.0552
  26643 WAT        24.9090   26.0940   27.5910 O      26643 WAT       0.0493
  26644 WAT        24.9090   26.3440   15.8410 O      26644 WAT       0.0641
  26645 WAT        24.9090   26.3440   16.0910 O      26645 WAT       0.1017
  26646 WAT        24.9090   26.3440   16.3410 O      26646 WAT       0.1150
  26647 WAT        24.9090   26.3440   16.5910 O      26647 WAT       0.0954
  26648 WAT        24.9090   26.3440   16.8410 O      26648 WAT       0.0594
  26649 WAT        24.9090   26.3440   21.8410 O      26649 WAT       0.0602
  26650 WAT        24.9090   26.3440   22.0910 O      26650 WAT       0.0899
  26651 WAT        24.9090   26.3440   22.3410 O      26651 WAT       0.1198
  26652 WAT        24.9090   26.3440   22.5910 O      26652 WAT       0.1354
  26653 WAT        24.9090   26.3440   22.8410 O      26653 WAT       0.1291
  26654 WAT        24.9090   26.3440   23.0910 O      26654 WAT       0.1073
  26655 WAT        24.9090   26.3440   23.3410 O      26655 WAT       0.0820
  26656 WAT        24.9090   26.3440   23.5910 O      26656 WAT       0.0610
  26657 WAT        24.9090   26.3440   23.8410 O      26657 WAT       0.0471
  26658 WAT        24.9090   26.3440   25.8410 O      26658 WAT       0.0496
  26659 WAT        24.9090   26.3440   26.0910 O      26659 WAT       0.0508
  26660 WAT        24.9090   26.3440   26.3410 O      26660 WAT       0.0485
  26661 WAT        24.9090   26.3440   26.5910 O      26661 WAT       0.0455
  26662 WAT        24.9090   26.5940   15.8410 O      26662 WAT       0.0759
  26663 WAT        24.9090   26.5940   16.0910 O      26663 WAT       0.1098
  26664 WAT        24.9090   26.5940   16.3410 O      26664 WAT       0.1132
  26665 WAT        24.9090   26.5940   16.5910 O      26665 WAT       0.0855
  26666 WAT        24.9090   26.5940   16.8410 O      26666 WAT       0.0487
  26667 WAT        24.9090   26.5940   19.8410 O      26667 WAT       0.0482
  26668 WAT        24.9090   26.5940   20.0910 O      26668 WAT       0.0546
  26669 WAT        24.9090   26.5940   20.3410 O      26669 WAT       0.0513
  26670 WAT        24.9090   26.5940   22.0910 O      26670 WAT       0.0594
  26671 WAT        24.9090   26.5940   22.3410 O      26671 WAT       0.0759
  26672 WAT        24.9090   26.5940   22.5910 O      26672 WAT       0.0814
  26673 WAT        24.9090   26.5940   22.8410 O      26673 WAT       0.0726
  26674 WAT        24.9090   26.5940   23.0910 O      26674 WAT       0.0556
  26675 WAT        24.9090   26.8440   15.8410 O      26675 WAT       0.0606
  26676 WAT        24.9090   26.8440   16.0910 O      26676 WAT       0.0804
  26677 WAT        24.9090   26.8440   16.3410 O      26677 WAT       0.0758
  26678 WAT        24.9090   26.8440   16.5910 O      26678 WAT       0.0523
  26679 WAT        24.9090   26.8440   19.5910 O      26679 WAT       0.0474
  26680 WAT        24.9090   26.8440   19.8410 O      26680 WAT       0.0610
  26681 WAT        24.9090   26.8440   20.0910 O      26681 WAT       0.0650
  26682 WAT        24.9090   26.8440   20.3410 O      26682 WAT       0.0567
  26683 WAT        24.9090   27.0940   19.5910 O      26683 WAT       0.0498
  26684 WAT        24.9090   27.0940   19.8410 O      26684 WAT       0.0593
  26685 WAT        24.9090   27.0940   20.0910 O      26685 WAT       0.0581
  26686 WAT        24.9090   27.0940   20.3410 O      26686 WAT       0.0461
  26687 WAT        24.9090   28.0940   15.5910 O      26687 WAT       0.0479
  26688 WAT        24.9090   28.0940   15.8410 O      26688 WAT       0.0455
  26689 WAT        24.9090   28.3440   15.3410 O      26689 WAT       0.0683
  26690 WAT        24.9090   28.3440   15.5910 O      26690 WAT       0.0910
  26691 WAT        24.9090   28.3440   15.8410 O      26691 WAT       0.0894
  26692 WAT        24.9090   28.3440   16.0910 O      26692 WAT       0.0659
  26693 WAT        24.9090   28.3440   18.5910 O      26693 WAT       0.0477
  26694 WAT        24.9090   28.5940   15.0910 O      26694 WAT       0.0480
  26695 WAT        24.9090   28.5940   15.3410 O      26695 WAT       0.0912
  26696 WAT        24.9090   28.5940   15.5910 O      26696 WAT       0.1253
  26697 WAT        24.9090   28.5940   15.8410 O      26697 WAT       0.1270
  26698 WAT        24.9090   28.5940   16.0910 O      26698 WAT       0.0967
  26699 WAT        24.9090   28.5940   16.3410 O      26699 WAT       0.0562
  26700 WAT        24.9090   28.5940   18.0910 O      26700 WAT       0.0534
  26701 WAT        24.9090   28.5940   18.3410 O      26701 WAT       0.0785
  26702 WAT        24.9090   28.5940   18.5910 O      26702 WAT       0.0832
  26703 WAT        24.9090   28.5940   18.8410 O      26703 WAT       0.0642
  26704 WAT        24.9090   28.8440   15.0910 O      26704 WAT       0.0456
  26705 WAT        24.9090   28.8440   15.3410 O      26705 WAT       0.0898
  26706 WAT        24.9090   28.8440   15.5910 O      26706 WAT       0.1278
  26707 WAT        24.9090   28.8440   15.8410 O      26707 WAT       0.1337
  26708 WAT        24.9090   28.8440   16.0910 O      26708 WAT       0.1048
  26709 WAT        24.9090   28.8440   16.3410 O      26709 WAT       0.0629
  26710 WAT        24.9090   28.8440   18.0910 O      26710 WAT       0.0825
  26711 WAT        24.9090   28.8440   18.3410 O      26711 WAT       0.1160
  26712 WAT        24.9090   28.8440   18.5910 O      26712 WAT       0.1172
  26713 WAT        24.9090   28.8440   18.8410 O      26713 WAT       0.0852
  26714 WAT        24.9090   29.0940   15.3410 O      26714 WAT       0.0670
  26715 WAT        24.9090   29.0940   15.5910 O      26715 WAT       0.0991
  26716 WAT        24.9090   29.0940   15.8410 O      26716 WAT       0.1072
  26717 WAT        24.9090   29.0940   16.0910 O      26717 WAT       0.0864
  26718 WAT        24.9090   29.0940   16.3410 O      26718 WAT       0.0532
  26719 WAT        24.9090   29.0940   17.8410 O      26719 WAT       0.0581
  26720 WAT        24.9090   29.0940   18.0910 O      26720 WAT       0.1071
  26721 WAT        24.9090   29.0940   18.3410 O      26721 WAT       0.1416
  26722 WAT        24.9090   29.0940   18.5910 O      26722 WAT       0.1349
  26723 WAT        24.9090   29.0940   18.8410 O      26723 WAT       0.0925
  26724 WAT        24.9090   29.0940   19.0910 O      26724 WAT       0.0453
  26725 WAT        24.9090   29.3440   15.5910 O      26725 WAT       0.0594
  26726 WAT        24.9090   29.3440   15.8410 O      26726 WAT       0.0667
  26727 WAT        24.9090   29.3440   16.0910 O      26727 WAT       0.0556
  26728 WAT        24.9090   29.3440   17.8410 O      26728 WAT       0.0731
  26729 WAT        24.9090   29.3440   18.0910 O      26729 WAT       0.1231
  26730 WAT        24.9090   29.3440   18.3410 O      26730 WAT       0.1493
  26731 WAT        24.9090   29.3440   18.5910 O      26731 WAT       0.1313
  26732 WAT        24.9090   29.3440   18.8410 O      26732 WAT       0.0836
  26733 WAT        24.9090   29.5940   17.8410 O      26733 WAT       0.0846
  26734 WAT        24.9090   29.5940   18.0910 O      26734 WAT       0.1287
  26735 WAT        24.9090   29.5940   18.3410 O      26735 WAT       0.1403
  26736 WAT        24.9090   29.5940   18.5910 O      26736 WAT       0.1112
  26737 WAT        24.9090   29.5940   18.8410 O      26737 WAT       0.0642
  26738 WAT        24.9090   29.8440   17.8410 O      26738 WAT       0.0884
  26739 WAT        24.9090   29.8440   18.0910 O      26739 WAT       0.1221
  26740 WAT        24.9090   29.8440   18.3410 O      26740 WAT       0.1195
  26741 WAT        24.9090   29.8440   18.5910 O      26741 WAT       0.0843
  26742 WAT        24.9090   29.8440   26.5910 O      26742 WAT       0.0517
  26743 WAT        24.9090   29.8440   26.8410 O      26743 WAT       0.0591
  26744 WAT        24.9090   29.8440   27.0910 O      26744 WAT       0.0587
  26745 WAT        24.9090   29.8440   27.3410 O      26745 WAT       0.0514
  26746 WAT        24.9090   30.0940   17.8410 O      26746 WAT       0.0817
  26747 WAT        24.9090   30.0940   18.0910 O      26747 WAT       0.1041
  26748 WAT        24.9090   30.0940   18.3410 O      26748 WAT       0.0926
  26749 WAT        24.9090   30.0940   18.5910 O      26749 WAT       0.0582
  26750 WAT        24.9090   30.0940   26.3410 O      26750 WAT       0.0522
  26751 WAT        24.9090   30.0940   26.5910 O      26751 WAT       0.0718
  26752 WAT        24.9090   30.0940   26.8410 O      26752 WAT       0.0844
  26753 WAT        24.9090   30.0940   27.0910 O      26753 WAT       0.0851
  26754 WAT        24.9090   30.0940   27.3410 O      26754 WAT       0.0741
  26755 WAT        24.9090   30.0940   27.5910 O      26755 WAT       0.0574
  26756 WAT        24.9090   30.3440   17.8410 O      26756 WAT       0.0665
  26757 WAT        24.9090   30.3440   18.0910 O      26757 WAT       0.0793
  26758 WAT        24.9090   30.3440   18.3410 O      26758 WAT       0.0651
  26759 WAT        24.9090   30.3440   26.3410 O      26759 WAT       0.0603
  26760 WAT        24.9090   30.3440   26.5910 O      26760 WAT       0.0864
  26761 WAT        24.9090   30.3440   26.8410 O      26761 WAT       0.1047
  26762 WAT        24.9090   30.3440   27.0910 O      26762 WAT       0.1068
  26763 WAT        24.9090   30.3440   27.3410 O      26763 WAT       0.0925
  26764 WAT        24.9090   30.3440   27.5910 O      26764 WAT       0.0698
  26765 WAT        24.9090   30.3440   27.8410 O      26765 WAT       0.0484
  26766 WAT        24.9090   30.5940   17.8410 O      26766 WAT       0.0478
  26767 WAT        24.9090   30.5940   18.0910 O      26767 WAT       0.0540
  26768 WAT        24.9090   30.5940   26.3410 O      26768 WAT       0.0602
  26769 WAT        24.9090   30.5940   26.5910 O      26769 WAT       0.0905
  26770 WAT        24.9090   30.5940   26.8410 O      26770 WAT       0.1132
  26771 WAT        24.9090   30.5940   27.0910 O      26771 WAT       0.1168
  26772 WAT        24.9090   30.5940   27.3410 O      26772 WAT       0.1005
  26773 WAT        24.9090   30.5940   27.5910 O      26773 WAT       0.0739
  26774 WAT        24.9090   30.5940   27.8410 O      26774 WAT       0.0487
  26775 WAT        24.9090   30.8440   26.3410 O      26775 WAT       0.0533
  26776 WAT        24.9090   30.8440   26.5910 O      26776 WAT       0.0837
  26777 WAT        24.9090   30.8440   26.8410 O      26777 WAT       0.1078
  26778 WAT        24.9090   30.8440   27.0910 O      26778 WAT       0.1128
  26779 WAT        24.9090   30.8440   27.3410 O      26779 WAT       0.0968
  26780 WAT        24.9090   30.8440   27.5910 O      26780 WAT       0.0697
  26781 WAT        24.9090   31.0940   26.5910 O      26781 WAT       0.0699
  26782 WAT        24.9090   31.0940   26.8410 O      26782 WAT       0.0919
  26783 WAT        24.9090   31.0940   27.0910 O      26783 WAT       0.0975
  26784 WAT        24.9090   31.0940   27.3410 O      26784 WAT       0.0839
  26785 WAT        24.9090   31.0940   27.5910 O      26785 WAT       0.0601
  26786 WAT        24.9090   31.3440   26.5910 O      26786 WAT       0.0548
  26787 WAT        24.9090   31.3440   26.8410 O      26787 WAT       0.0721
  26788 WAT        24.9090   31.3440   27.0910 O      26788 WAT       0.0770
  26789 WAT        24.9090   31.3440   27.3410 O      26789 WAT       0.0669
  26790 WAT        24.9090   31.3440   27.5910 O      26790 WAT       0.0486
  26791 WAT        24.9090   31.5940   26.8410 O      26791 WAT       0.0552
  26792 WAT        24.9090   31.5940   27.0910 O      26792 WAT       0.0584
  26793 WAT        24.9090   31.5940   27.3410 O      26793 WAT       0.0514
  26794 WAT        24.9090   31.8440   21.0910 O      26794 WAT       0.0459
  26795 WAT        24.9090   31.8440   21.3410 O      26795 WAT       0.0621
  26796 WAT        24.9090   31.8440   21.5910 O      26796 WAT       0.0638
  26797 WAT        24.9090   31.8440   21.8410 O      26797 WAT       0.0481
  26798 WAT        24.9090   31.8440   26.8410 O      26798 WAT       0.0455
  26799 WAT        24.9090   31.8440   27.0910 O      26799 WAT       0.0470
  26800 WAT        24.9090   32.0940   20.8410 O      26800 WAT       0.0555
  26801 WAT        24.9090   32.0940   21.0910 O      26801 WAT       0.0868
  26802 WAT        24.9090   32.0940   21.3410 O      26802 WAT       0.1124
  26803 WAT        24.9090   32.0940   21.5910 O      26803 WAT       0.1128
  26804 WAT        24.9090   32.0940   21.8410 O      26804 WAT       0.0845
  26805 WAT        24.9090   32.0940   22.0910 O      26805 WAT       0.0467
  26806 WAT        24.9090   32.3440   20.5910 O      26806 WAT       0.0586
  26807 WAT        24.9090   32.3440   20.8410 O      26807 WAT       0.0913
  26808 WAT        24.9090   32.3440   21.0910 O      26808 WAT       0.1300
  26809 WAT        24.9090   32.3440   21.3410 O      26809 WAT       0.1574
  26810 WAT        24.9090   32.3440   21.5910 O      26810 WAT       0.1518
  26811 WAT        24.9090   32.3440   21.8410 O      26811 WAT       0.1116
  26812 WAT        24.9090   32.3440   22.0910 O      26812 WAT       0.0619
  26813 WAT        24.9090   32.3440   26.5910 O      26813 WAT       0.0453
  26814 WAT        24.9090   32.3440   26.8410 O      26814 WAT       0.0464
  26815 WAT        24.9090   32.5940   20.3410 O      26815 WAT       0.0598
  26816 WAT        24.9090   32.5940   20.5910 O      26816 WAT       0.0875
  26817 WAT        24.9090   32.5940   20.8410 O      26817 WAT       0.1218
  26818 WAT        24.9090   32.5940   21.0910 O      26818 WAT       0.1554
  26819 WAT        24.9090   32.5940   21.3410 O      26819 WAT       0.1722
  26820 WAT        24.9090   32.5940   21.5910 O      26820 WAT       0.1565
  26821 WAT        24.9090   32.5940   21.8410 O      26821 WAT       0.1115
  26822 WAT        24.9090   32.5940   22.0910 O      26822 WAT       0.0620
  26823 WAT        24.9090   32.5940   25.8410 O      26823 WAT       0.0458
  26824 WAT        24.9090   32.5940   26.0910 O      26824 WAT       0.0489
  26825 WAT        24.9090   32.5940   26.3410 O      26825 WAT       0.0509
  26826 WAT        24.9090   32.5940   26.5910 O      26826 WAT       0.0512
  26827 WAT        24.9090   32.5940   26.8410 O      26827 WAT       0.0494
  26828 WAT        24.9090   32.5940   27.0910 O      26828 WAT       0.0459
  26829 WAT        24.9090   32.8440   11.8410 O      26829 WAT       0.0716
  26830 WAT        24.9090   32.8440   12.0910 O      26830 WAT       0.1016
  26831 WAT        24.9090   32.8440   12.3410 O      26831 WAT       0.0972
  26832 WAT        24.9090   32.8440   12.5910 O      26832 WAT       0.0630
  26833 WAT        24.9090   32.8440   16.3410 O      26833 WAT       0.0475
  26834 WAT        24.9090   32.8440   16.5910 O      26834 WAT       0.0460
  26835 WAT        24.9090   32.8440   20.0910 O      26835 WAT       0.0550
  26836 WAT        24.9090   32.8440   20.3410 O      26836 WAT       0.0783
  26837 WAT        24.9090   32.8440   20.5910 O      26837 WAT       0.1055
  26838 WAT        24.9090   32.8440   20.8410 O      26838 WAT       0.1315
  26839 WAT        24.9090   32.8440   21.0910 O      26839 WAT       0.1489
  26840 WAT        24.9090   32.8440   21.3410 O      26840 WAT       0.1487
  26841 WAT        24.9090   32.8440   21.5910 O      26841 WAT       0.1252
  26842 WAT        24.9090   32.8440   21.8410 O      26842 WAT       0.0858
  26843 WAT        24.9090   32.8440   22.0910 O      26843 WAT       0.0487
  26844 WAT        24.9090   32.8440   23.5910 O      26844 WAT       0.0501
  26845 WAT        24.9090   32.8440   23.8410 O      26845 WAT       0.0590
  26846 WAT        24.9090   32.8440   24.0910 O      26846 WAT       0.0638
  26847 WAT        24.9090   32.8440   24.3410 O      26847 WAT       0.0631
  26848 WAT        24.9090   32.8440   24.5910 O      26848 WAT       0.0581
  26849 WAT        24.9090   32.8440   24.8410 O      26849 WAT       0.0520
  26850 WAT        24.9090   32.8440   25.0910 O      26850 WAT       0.0481
  26851 WAT        24.9090   32.8440   25.3410 O      26851 WAT       0.0479
  26852 WAT        24.9090   32.8440   25.5910 O      26852 WAT       0.0503
  26853 WAT        24.9090   32.8440   25.8410 O      26853 WAT       0.0531
  26854 WAT        24.9090   32.8440   26.0910 O      26854 WAT       0.0547
  26855 WAT        24.9090   32.8440   26.3410 O      26855 WAT       0.0543
  26856 WAT        24.9090   32.8440   26.5910 O      26856 WAT       0.0520
  26857 WAT        24.9090   32.8440   26.8410 O      26857 WAT       0.0483
  26858 WAT        24.9090   33.0940   11.5910 O      26858 WAT       0.0704
  26859 WAT        24.9090   33.0940   11.8410 O      26859 WAT       0.1424
  26860 WAT        24.9090   33.0940   12.0910 O      26860 WAT       0.2003
  26861 WAT        24.9090   33.0940   12.3410 O      26861 WAT       0.1939
  26862 WAT        24.9090   33.0940   12.5910 O      26862 WAT       0.1297
  26863 WAT        24.9090   33.0940   12.8410 O      26863 WAT       0.0607
  26864 WAT        24.9090   33.0940   16.0910 O      26864 WAT       0.0474
  26865 WAT        24.9090   33.0940   16.3410 O      26865 WAT       0.0604
  26866 WAT        24.9090   33.0940   16.5910 O      26866 WAT       0.0560
  26867 WAT        24.9090   33.0940   20.0910 O      26867 WAT       0.0593
  26868 WAT        24.9090   33.0940   20.3410 O      26868 WAT       0.0807
  26869 WAT        24.9090   33.0940   20.5910 O      26869 WAT       0.1010
  26870 WAT        24.9090   33.0940   20.8410 O      26870 WAT       0.1140
  26871 WAT        24.9090   33.0940   21.0910 O      26871 WAT       0.1150
  26872 WAT        24.9090   33.0940   21.3410 O      26872 WAT       0.1029
  26873 WAT        24.9090   33.0940   21.5910 O      26873 WAT       0.0796
  26874 WAT        24.9090   33.0940   21.8410 O      26874 WAT       0.0529
  26875 WAT        24.9090   33.0940   23.0910 O      26875 WAT       0.0471
  26876 WAT        24.9090   33.0940   23.3410 O      26876 WAT       0.0620
  26877 WAT        24.9090   33.0940   23.5910 O      26877 WAT       0.0763
  26878 WAT        24.9090   33.0940   23.8410 O      26878 WAT       0.0857
  26879 WAT        24.9090   33.0940   24.0910 O      26879 WAT       0.0867
  26880 WAT        24.9090   33.0940   24.3410 O      26880 WAT       0.0797
  26881 WAT        24.9090   33.0940   24.5910 O      26881 WAT       0.0689
  26882 WAT        24.9090   33.0940   24.8410 O      26882 WAT       0.0587
  26883 WAT        24.9090   33.0940   25.0910 O      26883 WAT       0.0520
  26884 WAT        24.9090   33.0940   25.3410 O      26884 WAT       0.0495
  26885 WAT        24.9090   33.0940   25.5910 O      26885 WAT       0.0499
  26886 WAT        24.9090   33.0940   25.8410 O      26886 WAT       0.0512
  26887 WAT        24.9090   33.0940   26.0910 O      26887 WAT       0.0513
  26888 WAT        24.9090   33.0940   26.3410 O      26888 WAT       0.0495
  26889 WAT        24.9090   33.0940   26.5910 O      26889 WAT       0.0462
  26890 WAT        24.9090   33.3440   11.5910 O      26890 WAT       0.1015
  26891 WAT        24.9090   33.3440   11.8410 O      26891 WAT       0.1956
  26892 WAT        24.9090   33.3440   12.0910 O      26892 WAT       0.2718
  26893 WAT        24.9090   33.3440   12.3410 O      26893 WAT       0.2667
  26894 WAT        24.9090   33.3440   12.5910 O      26894 WAT       0.1847
  26895 WAT        24.9090   33.3440   12.8410 O      26895 WAT       0.0916
  26896 WAT        24.9090   33.3440   16.0910 O      26896 WAT       0.0632
  26897 WAT        24.9090   33.3440   16.3410 O      26897 WAT       0.0758
  26898 WAT        24.9090   33.3440   16.5910 O      26898 WAT       0.0665
  26899 WAT        24.9090   33.3440   20.0910 O      26899 WAT       0.0497
  26900 WAT        24.9090   33.3440   20.3410 O      26900 WAT       0.0648
  26901 WAT        24.9090   33.3440   20.5910 O      26901 WAT       0.0758
  26902 WAT        24.9090   33.3440   20.8410 O      26902 WAT       0.0787
  26903 WAT        24.9090   33.3440   21.0910 O      26903 WAT       0.0720
  26904 WAT        24.9090   33.3440   21.3410 O      26904 WAT       0.0584
  26905 WAT        24.9090   33.3440   23.0910 O      26905 WAT       0.0623
  26906 WAT        24.9090   33.3440   23.3410 O      26906 WAT       0.0811
  26907 WAT        24.9090   33.3440   23.5910 O      26907 WAT       0.0963
  26908 WAT        24.9090   33.3440   23.8410 O      26908 WAT       0.1025
  26909 WAT        24.9090   33.3440   24.0910 O      26909 WAT       0.0969
  26910 WAT        24.9090   33.3440   24.3410 O      26910 WAT       0.0824
  26911 WAT        24.9090   33.3440   24.5910 O      26911 WAT       0.0665
  26912 WAT        24.9090   33.3440   24.8410 O      26912 WAT       0.0542
  26913 WAT        24.9090   33.3440   25.0910 O      26913 WAT       0.0464
  26914 WAT        24.9090   33.5940   11.3410 O      26914 WAT       0.0458
  26915 WAT        24.9090   33.5940   11.5910 O      26915 WAT       0.1053
  26916 WAT        24.9090   33.5940   11.8410 O      26916 WAT       0.1895
  26917 WAT        24.9090   33.5940   12.0910 O      26917 WAT       0.2573
  26918 WAT        24.9090   33.5940   12.3410 O      26918 WAT       0.2553
  26919 WAT        24.9090   33.5940   12.5910 O      26919 WAT       0.1836
  26920 WAT        24.9090   33.5940   12.8410 O      26920 WAT       0.0967
  26921 WAT        24.9090   33.5940   15.8410 O      26921 WAT       0.0570
  26922 WAT        24.9090   33.5940   16.0910 O      26922 WAT       0.0840
  26923 WAT        24.9090   33.5940   16.3410 O      26923 WAT       0.0936
  26924 WAT        24.9090   33.5940   16.5910 O      26924 WAT       0.0770
  26925 WAT        24.9090   33.5940   16.8410 O      26925 WAT       0.0476
  26926 WAT        24.9090   33.5940   20.5910 O      26926 WAT       0.0453
  26927 WAT        24.9090   33.5940   22.8410 O      26927 WAT       0.0524
  26928 WAT        24.9090   33.5940   23.0910 O      26928 WAT       0.0716
  26929 WAT        24.9090   33.5940   23.3410 O      26929 WAT       0.0899
  26930 WAT        24.9090   33.5940   23.5910 O      26930 WAT       0.1015
  26931 WAT        24.9090   33.5940   23.8410 O      26931 WAT       0.1011
  26932 WAT        24.9090   33.5940   24.0910 O      26932 WAT       0.0885
  26933 WAT        24.9090   33.5940   24.3410 O      26933 WAT       0.0696
  26934 WAT        24.9090   33.5940   24.5910 O      26934 WAT       0.0524
  26935 WAT        24.9090   33.8440   11.5910 O      26935 WAT       0.0802
  26936 WAT        24.9090   33.8440   11.8410 O      26936 WAT       0.1326
  26937 WAT        24.9090   33.8440   12.0910 O      26937 WAT       0.1731
  26938 WAT        24.9090   33.8440   12.3410 O      26938 WAT       0.1723
  26939 WAT        24.9090   33.8440   12.5910 O      26939 WAT       0.1284
  26940 WAT        24.9090   33.8440   12.8410 O      26940 WAT       0.0717
  26941 WAT        24.9090   33.8440   15.8410 O      26941 WAT       0.0764
  26942 WAT        24.9090   33.8440   16.0910 O      26942 WAT       0.1035
  26943 WAT        24.9090   33.8440   16.3410 O      26943 WAT       0.1064
  26944 WAT        24.9090   33.8440   16.5910 O      26944 WAT       0.0818
  26945 WAT        24.9090   33.8440   16.8410 O      26945 WAT       0.0482
  26946 WAT        24.9090   33.8440   22.8410 O      26946 WAT       0.0556
  26947 WAT        24.9090   33.8440   23.0910 O      26947 WAT       0.0728
  26948 WAT        24.9090   33.8440   23.3410 O      26948 WAT       0.0862
  26949 WAT        24.9090   33.8440   23.5910 O      26949 WAT       0.0907
  26950 WAT        24.9090   33.8440   23.8410 O      26950 WAT       0.0834
  26951 WAT        24.9090   33.8440   24.0910 O      26951 WAT       0.0671
  26952 WAT        24.9090   33.8440   24.3410 O      26952 WAT       0.0487
  26953 WAT        24.9090   34.0940   11.5910 O      26953 WAT       0.0454
  26954 WAT        24.9090   34.0940   11.8410 O      26954 WAT       0.0687
  26955 WAT        24.9090   34.0940   12.0910 O      26955 WAT       0.0847
  26956 WAT        24.9090   34.0940   12.3410 O      26956 WAT       0.0832
  26957 WAT        24.9090   34.0940   12.5910 O      26957 WAT       0.0636
  26958 WAT        24.9090   34.0940   15.5910 O      26958 WAT       0.0573
  26959 WAT        24.9090   34.0940   15.8410 O      26959 WAT       0.0889
  26960 WAT        24.9090   34.0940   16.0910 O      26960 WAT       0.1094
  26961 WAT        24.9090   34.0940   16.3410 O      26961 WAT       0.1032
  26962 WAT        24.9090   34.0940   16.5910 O      26962 WAT       0.0739
  26963 WAT        24.9090   34.0940   22.8410 O      26963 WAT       0.0546
  26964 WAT        24.9090   34.0940   23.0910 O      26964 WAT       0.0671
  26965 WAT        24.9090   34.0940   23.3410 O      26965 WAT       0.0735
  26966 WAT        24.9090   34.0940   23.5910 O      26966 WAT       0.0707
  26967 WAT        24.9090   34.0940   23.8410 O      26967 WAT       0.0592
  26968 WAT        24.9090   34.3440   15.5910 O      26968 WAT       0.0621
  26969 WAT        24.9090   34.3440   15.8410 O      26969 WAT       0.0859
  26970 WAT        24.9090   34.3440   16.0910 O      26970 WAT       0.0950
  26971 WAT        24.9090   34.3440   16.3410 O      26971 WAT       0.0817
  26972 WAT        24.9090   34.3440   16.5910 O      26972 WAT       0.0547
  26973 WAT        24.9090   34.3440   22.8410 O      26973 WAT       0.0509
  26974 WAT        24.9090   34.3440   23.0910 O      26974 WAT       0.0577
  26975 WAT        24.9090   34.3440   23.3410 O      26975 WAT       0.0577
  26976 WAT        24.9090   34.3440   23.5910 O      26976 WAT       0.0502
  26977 WAT        24.9090   34.5940   15.5910 O      26977 WAT       0.0556
  26978 WAT        24.9090   34.5940   15.8410 O      26978 WAT       0.0677
  26979 WAT        24.9090   34.5940   16.0910 O      26979 WAT       0.0667
  26980 WAT        24.9090   34.5940   16.3410 O      26980 WAT       0.0522
  26981 WAT        24.9090   34.5940   18.3410 O      26981 WAT       0.0460
  26982 WAT        24.9090   34.5940   18.5910 O      26982 WAT       0.0461
  26983 WAT        24.9090   34.5940   22.8410 O      26983 WAT       0.0451
  26984 WAT        24.9090   34.5940   23.0910 O      26984 WAT       0.0472
  26985 WAT        24.9090   34.8440   18.3410 O      26985 WAT       0.0452
  26986 WAT        24.9090   34.8440   18.5910 O      26986 WAT       0.0451
  26987 WAT        25.1590    9.0940   21.5910 O      26987 WAT       0.0456
  26988 WAT        25.1590    9.3440   21.3410 O      26988 WAT       0.0459
  26989 WAT        25.1590    9.3440   21.5910 O      26989 WAT       0.0477
  26990 WAT        25.1590    9.3440   21.8410 O      26990 WAT       0.0461
  26991 WAT        25.1590    9.5940   21.5910 O      26991 WAT       0.0461
  26992 WAT        25.1590    9.5940   25.0910 O      26992 WAT       0.0467
  26993 WAT        25.1590    9.5940   25.3410 O      26993 WAT       0.0474
  26994 WAT        25.1590   11.0940   27.0910 O      26994 WAT       0.0465
  26995 WAT        25.1590   11.0940   27.3410 O      26995 WAT       0.0519
  26996 WAT        25.1590   11.0940   27.5910 O      26996 WAT       0.0470
  26997 WAT        25.1590   11.3440   27.0910 O      26997 WAT       0.0664
  26998 WAT        25.1590   11.3440   27.3410 O      26998 WAT       0.0793
  26999 WAT        25.1590   11.3440   27.5910 O      26999 WAT       0.0735
  27000 WAT        25.1590   11.3440   27.8410 O      27000 WAT       0.0529
  27001 WAT        25.1590   11.5940   26.8410 O      27001 WAT       0.0567
  27002 WAT        25.1590   11.5940   27.0910 O      27002 WAT       0.0933
  27003 WAT        25.1590   11.5940   27.3410 O      27003 WAT       0.1157
  27004 WAT        25.1590   11.5940   27.5910 O      27004 WAT       0.1090
  27005 WAT        25.1590   11.5940   27.8410 O      27005 WAT       0.0780
  27006 WAT        25.1590   11.8440   26.8410 O      27006 WAT       0.0679
  27007 WAT        25.1590   11.8440   27.0910 O      27007 WAT       0.1155
  27008 WAT        25.1590   11.8440   27.3410 O      27008 WAT       0.1462
  27009 WAT        25.1590   11.8440   27.5910 O      27009 WAT       0.1391
  27010 WAT        25.1590   11.8440   27.8410 O      27010 WAT       0.0995
  27011 WAT        25.1590   11.8440   28.0910 O      27011 WAT       0.0533
  27012 WAT        25.1590   12.0940   26.8410 O      27012 WAT       0.0697
  27013 WAT        25.1590   12.0940   27.0910 O      27013 WAT       0.1196
  27014 WAT        25.1590   12.0940   27.3410 O      27014 WAT       0.1526
  27015 WAT        25.1590   12.0940   27.5910 O      27015 WAT       0.1457
  27016 WAT        25.1590   12.0940   27.8410 O      27016 WAT       0.1043
  27017 WAT        25.1590   12.0940   28.0910 O      27017 WAT       0.0560
  27018 WAT        25.1590   12.3440   26.8410 O      27018 WAT       0.0603
  27019 WAT        25.1590   12.3440   27.0910 O      27019 WAT       0.1023
  27020 WAT        25.1590   12.3440   27.3410 O      27020 WAT       0.1294
  27021 WAT        25.1590   12.3440   27.5910 O      27021 WAT       0.1231
  27022 WAT        25.1590   12.3440   27.8410 O      27022 WAT       0.0882
  27023 WAT        25.1590   12.3440   28.0910 O      27023 WAT       0.0477
  27024 WAT        25.1590   12.5940   27.0910 O      27024 WAT       0.0727
  27025 WAT        25.1590   12.5940   27.3410 O      27025 WAT       0.0898
  27026 WAT        25.1590   12.5940   27.5910 O      27026 WAT       0.0842
  27027 WAT        25.1590   12.5940   27.8410 O      27027 WAT       0.0602
  27028 WAT        25.1590   12.8440   16.5910 O      27028 WAT       0.0473
  27029 WAT        25.1590   12.8440   16.8410 O      27029 WAT       0.0459
  27030 WAT        25.1590   12.8440   27.3410 O      27030 WAT       0.0526
  27031 WAT        25.1590   12.8440   27.5910 O      27031 WAT       0.0485
  27032 WAT        25.1590   13.0940   16.5910 O      27032 WAT       0.0455
  27033 WAT        25.1590   13.8440   12.5910 O      27033 WAT       0.0467
  27034 WAT        25.1590   13.8440   12.8410 O      27034 WAT       0.0480
  27035 WAT        25.1590   14.0940   12.3410 O      27035 WAT       0.0579
  27036 WAT        25.1590   14.0940   12.5910 O      27036 WAT       0.0670
  27037 WAT        25.1590   14.0940   12.8410 O      27037 WAT       0.0617
  27038 WAT        25.1590   14.0940   18.8410 O      27038 WAT       0.0463
  27039 WAT        25.1590   14.0940   19.0910 O      27039 WAT       0.0461
  27040 WAT        25.1590   14.0940   28.0910 O      27040 WAT       0.0456
  27041 WAT        25.1590   14.0940   28.3410 O      27041 WAT       0.0639
  27042 WAT        25.1590   14.0940   28.5910 O      27042 WAT       0.0692
  27043 WAT        25.1590   14.0940   28.8410 O      27043 WAT       0.0568
  27044 WAT        25.1590   14.3440   12.0910 O      27044 WAT       0.0633
  27045 WAT        25.1590   14.3440   12.3410 O      27045 WAT       0.0826
  27046 WAT        25.1590   14.3440   12.5910 O      27046 WAT       0.0895
  27047 WAT        25.1590   14.3440   12.8410 O      27047 WAT       0.0753
  27048 WAT        25.1590   14.3440   13.0910 O      27048 WAT       0.0484
  27049 WAT        25.1590   14.3440   18.5910 O      27049 WAT       0.0510
  27050 WAT        25.1590   14.3440   18.8410 O      27050 WAT       0.0545
  27051 WAT        25.1590   14.3440   19.0910 O      27051 WAT       0.0512
  27052 WAT        25.1590   14.3440   28.0910 O      27052 WAT       0.0525
  27053 WAT        25.1590   14.3440   28.3410 O      27053 WAT       0.0804
  27054 WAT        25.1590   14.3440   28.5910 O      27054 WAT       0.0950
  27055 WAT        25.1590   14.3440   28.8410 O      27055 WAT       0.0852
  27056 WAT        25.1590   14.3440   29.0910 O      27056 WAT       0.0578
  27057 WAT        25.1590   14.5940   11.8410 O      27057 WAT       0.0568
  27058 WAT        25.1590   14.5940   12.0910 O      27058 WAT       0.0818
  27059 WAT        25.1590   14.5940   12.3410 O      27059 WAT       0.1054
  27060 WAT        25.1590   14.5940   12.5910 O      27060 WAT       0.1095
  27061 WAT        25.1590   14.5940   12.8410 O      27061 WAT       0.0865
  27062 WAT        25.1590   14.5940   13.0910 O      27062 WAT       0.0511
  27063 WAT        25.1590   14.5940   18.3410 O      27063 WAT       0.0476
  27064 WAT        25.1590   14.5940   18.5910 O      27064 WAT       0.0573
  27065 WAT        25.1590   14.5940   18.8410 O      27065 WAT       0.0600
  27066 WAT        25.1590   14.5940   19.0910 O      27066 WAT       0.0541
  27067 WAT        25.1590   14.5940   28.0910 O      27067 WAT       0.0490
  27068 WAT        25.1590   14.5940   28.3410 O      27068 WAT       0.0796
  27069 WAT        25.1590   14.5940   28.5910 O      27069 WAT       0.1002
  27070 WAT        25.1590   14.5940   28.8410 O      27070 WAT       0.0965
  27071 WAT        25.1590   14.5940   29.0910 O      27071 WAT       0.0708
  27072 WAT        25.1590   14.8440   11.8410 O      27072 WAT       0.0628
  27073 WAT        25.1590   14.8440   12.0910 O      27073 WAT       0.0923
  27074 WAT        25.1590   14.8440   12.3410 O      27074 WAT       0.1184
  27075 WAT        25.1590   14.8440   12.5910 O      27075 WAT       0.1203
  27076 WAT        25.1590   14.8440   12.8410 O      27076 WAT       0.0913
  27077 WAT        25.1590   14.8440   13.0910 O      27077 WAT       0.0507
  27078 WAT        25.1590   14.8440   18.3410 O      27078 WAT       0.0489
  27079 WAT        25.1590   14.8440   18.5910 O      27079 WAT       0.0598
  27080 WAT        25.1590   14.8440   18.8410 O      27080 WAT       0.0625
  27081 WAT        25.1590   14.8440   19.0910 O      27081 WAT       0.0552
  27082 WAT        25.1590   14.8440   28.3410 O      27082 WAT       0.0619
  27083 WAT        25.1590   14.8440   28.5910 O      27083 WAT       0.0815
  27084 WAT        25.1590   14.8440   28.8410 O      27084 WAT       0.0829
  27085 WAT        25.1590   14.8440   29.0910 O      27085 WAT       0.0651
  27086 WAT        25.1590   15.0940   11.8410 O      27086 WAT       0.0623
  27087 WAT        25.1590   15.0940   12.0910 O      27087 WAT       0.0918
  27088 WAT        25.1590   15.0940   12.3410 O      27088 WAT       0.1169
  27089 WAT        25.1590   15.0940   12.5910 O      27089 WAT       0.1169
  27090 WAT        25.1590   15.0940   12.8410 O      27090 WAT       0.0865
  27091 WAT        25.1590   15.0940   13.0910 O      27091 WAT       0.0460
  27092 WAT        25.1590   15.0940   18.3410 O      27092 WAT       0.0456
  27093 WAT        25.1590   15.0940   18.5910 O      27093 WAT       0.0584
  27094 WAT        25.1590   15.0940   18.8410 O      27094 WAT       0.0626
  27095 WAT        25.1590   15.0940   19.0910 O      27095 WAT       0.0557
  27096 WAT        25.1590   15.0940   28.5910 O      27096 WAT       0.0516
  27097 WAT        25.1590   15.0940   28.8410 O      27097 WAT       0.0547
  27098 WAT        25.1590   15.0940   29.0910 O      27098 WAT       0.0455
  27099 WAT        25.1590   15.3440   11.8410 O      27099 WAT       0.0604
  27100 WAT        25.1590   15.3440   12.0910 O      27100 WAT       0.0841
  27101 WAT        25.1590   15.3440   12.3410 O      27101 WAT       0.1036
  27102 WAT        25.1590   15.3440   12.5910 O      27102 WAT       0.1009
  27103 WAT        25.1590   15.3440   12.8410 O      27103 WAT       0.0725
  27104 WAT        25.1590   15.3440   18.5910 O      27104 WAT       0.0538
  27105 WAT        25.1590   15.3440   18.8410 O      27105 WAT       0.0611
  27106 WAT        25.1590   15.3440   19.0910 O      27106 WAT       0.0560
  27107 WAT        25.1590   15.5940   11.0910 O      27107 WAT       0.0451
  27108 WAT        25.1590   15.5940   11.3410 O      27108 WAT       0.0475
  27109 WAT        25.1590   15.5940   11.5910 O      27109 WAT       0.0531
  27110 WAT        25.1590   15.5940   11.8410 O      27110 WAT       0.0630
  27111 WAT        25.1590   15.5940   12.0910 O      27111 WAT       0.0763
  27112 WAT        25.1590   15.5940   12.3410 O      27112 WAT       0.0855
  27113 WAT        25.1590   15.5940   12.5910 O      27113 WAT       0.0785
  27114 WAT        25.1590   15.5940   12.8410 O      27114 WAT       0.0540
  27115 WAT        25.1590   15.5940   18.5910 O      27115 WAT       0.0477
  27116 WAT        25.1590   15.5940   18.8410 O      27116 WAT       0.0587
  27117 WAT        25.1590   15.5940   19.0910 O      27117 WAT       0.0571
  27118 WAT        25.1590   15.5940   25.8410 O      27118 WAT       0.0552
  27119 WAT        25.1590   15.5940   26.0910 O      27119 WAT       0.0779
  27120 WAT        25.1590   15.5940   26.3410 O      27120 WAT       0.0857
  27121 WAT        25.1590   15.5940   26.5910 O      27121 WAT       0.0724
  27122 WAT        25.1590   15.5940   26.8410 O      27122 WAT       0.0471
  27123 WAT        25.1590   15.8440    9.8410 O      27123 WAT       0.0585
  27124 WAT        25.1590   15.8440   10.0910 O      27124 WAT       0.0728
  27125 WAT        25.1590   15.8440   10.3410 O      27125 WAT       0.0798
  27126 WAT        25.1590   15.8440   10.5910 O      27126 WAT       0.0784
  27127 WAT        25.1590   15.8440   10.8410 O      27127 WAT       0.0727
  27128 WAT        25.1590   15.8440   11.0910 O      27128 WAT       0.0675
  27129 WAT        25.1590   15.8440   11.3410 O      27129 WAT       0.0654
  27130 WAT        25.1590   15.8440   11.5910 O      27130 WAT       0.0662
  27131 WAT        25.1590   15.8440   11.8410 O      27131 WAT       0.0684
  27132 WAT        25.1590   15.8440   12.0910 O      27132 WAT       0.0702
  27133 WAT        25.1590   15.8440   12.3410 O      27133 WAT       0.0676
  27134 WAT        25.1590   15.8440   12.5910 O      27134 WAT       0.0557
  27135 WAT        25.1590   15.8440   18.8410 O      27135 WAT       0.0564
  27136 WAT        25.1590   15.8440   19.0910 O      27136 WAT       0.0596
  27137 WAT        25.1590   15.8440   19.3410 O      27137 WAT       0.0501
  27138 WAT        25.1590   15.8440   21.5910 O      27138 WAT       0.0454
  27139 WAT        25.1590   15.8440   21.8410 O      27139 WAT       0.0508
  27140 WAT        25.1590   15.8440   22.0910 O      27140 WAT       0.0486
  27141 WAT        25.1590   15.8440   25.5910 O      27141 WAT       0.0601
  27142 WAT        25.1590   15.8440   25.8410 O      27142 WAT       0.1059
  27143 WAT        25.1590   15.8440   26.0910 O      27143 WAT       0.1555
  27144 WAT        25.1590   15.8440   26.3410 O      27144 WAT       0.1795
  27145 WAT        25.1590   15.8440   26.5910 O      27145 WAT       0.1598
  27146 WAT        25.1590   15.8440   26.8410 O      27146 WAT       0.1097
  27147 WAT        25.1590   15.8440   27.0910 O      27147 WAT       0.0592
  27148 WAT        25.1590   16.0940    9.3410 O      27148 WAT       0.0531
  27149 WAT        25.1590   16.0940    9.5910 O      27149 WAT       0.0759
  27150 WAT        25.1590   16.0940    9.8410 O      27150 WAT       0.0980
  27151 WAT        25.1590   16.0940   10.0910 O      27151 WAT       0.1125
  27152 WAT        25.1590   16.0940   10.3410 O      27152 WAT       0.1138
  27153 WAT        25.1590   16.0940   10.5910 O      27153 WAT       0.1030
  27154 WAT        25.1590   16.0940   10.8410 O      27154 WAT       0.0880
  27155 WAT        25.1590   16.0940   11.0910 O      27155 WAT       0.0761
  27156 WAT        25.1590   16.0940   11.3410 O      27156 WAT       0.0700
  27157 WAT        25.1590   16.0940   11.5910 O      27157 WAT       0.0677
  27158 WAT        25.1590   16.0940   11.8410 O      27158 WAT       0.0657
  27159 WAT        25.1590   16.0940   12.0910 O      27159 WAT       0.0603
  27160 WAT        25.1590   16.0940   12.3410 O      27160 WAT       0.0501
  27161 WAT        25.1590   16.0940   18.8410 O      27161 WAT       0.0540
  27162 WAT        25.1590   16.0940   19.0910 O      27162 WAT       0.0630
  27163 WAT        25.1590   16.0940   19.3410 O      27163 WAT       0.0580
  27164 WAT        25.1590   16.0940   21.5910 O      27164 WAT       0.0559
  27165 WAT        25.1590   16.0940   21.8410 O      27165 WAT       0.0660
  27166 WAT        25.1590   16.0940   22.0910 O      27166 WAT       0.0664
  27167 WAT        25.1590   16.0940   22.3410 O      27167 WAT       0.0587
  27168 WAT        25.1590   16.0940   22.5910 O      27168 WAT       0.0469
  27169 WAT        25.1590   16.0940   25.5910 O      27169 WAT       0.0766
  27170 WAT        25.1590   16.0940   25.8410 O      27170 WAT       0.1387
  27171 WAT        25.1590   16.0940   26.0910 O      27171 WAT       0.2125
  27172 WAT        25.1590   16.0940   26.3410 O      27172 WAT       0.2596
  27173 WAT        25.1590   16.0940   26.5910 O      27173 WAT       0.2465
  27174 WAT        25.1590   16.0940   26.8410 O      27174 WAT       0.1811
  27175 WAT        25.1590   16.0940   27.0910 O      27175 WAT       0.1041
  27176 WAT        25.1590   16.0940   27.3410 O      27176 WAT       0.0489
  27177 WAT        25.1590   16.3440    9.0910 O      27177 WAT       0.0533
  27178 WAT        25.1590   16.3440    9.3410 O      27178 WAT       0.0766
  27179 WAT        25.1590   16.3440    9.5910 O      27179 WAT       0.0993
  27180 WAT        25.1590   16.3440    9.8410 O      27180 WAT       0.1161
  27181 WAT        25.1590   16.3440   10.0910 O      27181 WAT       0.1217
  27182 WAT        25.1590   16.3440   10.3410 O      27182 WAT       0.1131
  27183 WAT        25.1590   16.3440   10.5910 O      27183 WAT       0.0941
  27184 WAT        25.1590   16.3440   10.8410 O      27184 WAT       0.0739
  27185 WAT        25.1590   16.3440   11.0910 O      27185 WAT       0.0596
  27186 WAT        25.1590   16.3440   11.3410 O      27186 WAT       0.0526
  27187 WAT        25.1590   16.3440   11.5910 O      27187 WAT       0.0502
  27188 WAT        25.1590   16.3440   11.8410 O      27188 WAT       0.0480
  27189 WAT        25.1590   16.3440   18.8410 O      27189 WAT       0.0503
  27190 WAT        25.1590   16.3440   19.0910 O      27190 WAT       0.0653
  27191 WAT        25.1590   16.3440   19.3410 O      27191 WAT       0.0664
  27192 WAT        25.1590   16.3440   19.5910 O      27192 WAT       0.0546
  27193 WAT        25.1590   16.3440   21.3410 O      27193 WAT       0.0465
  27194 WAT        25.1590   16.3440   21.5910 O      27194 WAT       0.0683
  27195 WAT        25.1590   16.3440   21.8410 O      27195 WAT       0.0844
  27196 WAT        25.1590   16.3440   22.0910 O      27196 WAT       0.0880
  27197 WAT        25.1590   16.3440   22.3410 O      27197 WAT       0.0796
  27198 WAT        25.1590   16.3440   22.5910 O      27198 WAT       0.0643
  27199 WAT        25.1590   16.3440   22.8410 O      27199 WAT       0.0473
  27200 WAT        25.1590   16.3440   25.5910 O      27200 WAT       0.0665
  27201 WAT        25.1590   16.3440   25.8410 O      27201 WAT       0.1236
  27202 WAT        25.1590   16.3440   26.0910 O      27202 WAT       0.1997
  27203 WAT        25.1590   16.3440   26.3410 O      27203 WAT       0.2616
  27204 WAT        25.1590   16.3440   26.5910 O      27204 WAT       0.2695
  27205 WAT        25.1590   16.3440   26.8410 O      27205 WAT       0.2154
  27206 WAT        25.1590   16.3440   27.0910 O      27206 WAT       0.1341
  27207 WAT        25.1590   16.3440   27.3410 O      27207 WAT       0.0672
  27208 WAT        25.1590   16.5940    9.0910 O      27208 WAT       0.0617
  27209 WAT        25.1590   16.5940    9.3410 O      27209 WAT       0.0789
  27210 WAT        25.1590   16.5940    9.5910 O      27210 WAT       0.0907
  27211 WAT        25.1590   16.5940    9.8410 O      27211 WAT       0.0948
  27212 WAT        25.1590   16.5940   10.0910 O      27212 WAT       0.0902
  27213 WAT        25.1590   16.5940   10.3410 O      27213 WAT       0.0769
  27214 WAT        25.1590   16.5940   10.5910 O      27214 WAT       0.0589
  27215 WAT        25.1590   16.5940   19.0910 O      27215 WAT       0.0640
  27216 WAT        25.1590   16.5940   19.3410 O      27216 WAT       0.0716
  27217 WAT        25.1590   16.5940   19.5910 O      27217 WAT       0.0651
  27218 WAT        25.1590   16.5940   19.8410 O      27218 WAT       0.0509
  27219 WAT        25.1590   16.5940   21.3410 O      27219 WAT       0.0537
  27220 WAT        25.1590   16.5940   21.5910 O      27220 WAT       0.0804
  27221 WAT        25.1590   16.5940   21.8410 O      27221 WAT       0.1023
  27222 WAT        25.1590   16.5940   22.0910 O      27222 WAT       0.1090
  27223 WAT        25.1590   16.5940   22.3410 O      27223 WAT       0.0989
  27224 WAT        25.1590   16.5940   22.5910 O      27224 WAT       0.0789
  27225 WAT        25.1590   16.5940   22.8410 O      27225 WAT       0.0569
  27226 WAT        25.1590   16.5940   25.8410 O      27226 WAT       0.0764
  27227 WAT        25.1590   16.5940   26.0910 O      27227 WAT       0.1322
  27228 WAT        25.1590   16.5940   26.3410 O      27228 WAT       0.1892
  27229 WAT        25.1590   16.5940   26.5910 O      27229 WAT       0.2153
  27230 WAT        25.1590   16.5940   26.8410 O      27230 WAT       0.1903
  27231 WAT        25.1590   16.5940   27.0910 O      27231 WAT       0.1299
  27232 WAT        25.1590   16.5940   27.3410 O      27232 WAT       0.0699
  27233 WAT        25.1590   16.8440    7.0910 O      27233 WAT       0.0465
  27234 WAT        25.1590   16.8440    9.0910 O      27234 WAT       0.0522
  27235 WAT        25.1590   16.8440    9.3410 O      27235 WAT       0.0573
  27236 WAT        25.1590   16.8440    9.5910 O      27236 WAT       0.0570
  27237 WAT        25.1590   16.8440    9.8410 O      27237 WAT       0.0527
  27238 WAT        25.1590   16.8440   10.0910 O      27238 WAT       0.0453
  27239 WAT        25.1590   16.8440   19.0910 O      27239 WAT       0.0589
  27240 WAT        25.1590   16.8440   19.3410 O      27240 WAT       0.0722
  27241 WAT        25.1590   16.8440   19.5910 O      27241 WAT       0.0728
  27242 WAT        25.1590   16.8440   19.8410 O      27242 WAT       0.0638
  27243 WAT        25.1590   16.8440   20.0910 O      27243 WAT       0.0517
  27244 WAT        25.1590   16.8440   21.3410 O      27244 WAT       0.0580
  27245 WAT        25.1590   16.8440   21.5910 O      27245 WAT       0.0858
  27246 WAT        25.1590   16.8440   21.8410 O      27246 WAT       0.1106
  27247 WAT        25.1590   16.8440   22.0910 O      27247 WAT       0.1188
  27248 WAT        25.1590   16.8440   22.3410 O      27248 WAT       0.1069
  27249 WAT        25.1590   16.8440   22.5910 O      27249 WAT       0.0832
  27250 WAT        25.1590   16.8440   22.8410 O      27250 WAT       0.0579
  27251 WAT        25.1590   16.8440   26.0910 O      27251 WAT       0.0641
  27252 WAT        25.1590   16.8440   26.3410 O      27252 WAT       0.1027
  27253 WAT        25.1590   16.8440   26.5910 O      27253 WAT       0.1311
  27254 WAT        25.1590   16.8440   26.8410 O      27254 WAT       0.1294
  27255 WAT        25.1590   16.8440   27.0910 O      27255 WAT       0.0972
  27256 WAT        25.1590   16.8440   27.3410 O      27256 WAT       0.0561
  27257 WAT        25.1590   17.0940    6.5910 O      27257 WAT       0.0451
  27258 WAT        25.1590   17.0940    6.8410 O      27258 WAT       0.0486
  27259 WAT        25.1590   17.0940    7.0910 O      27259 WAT       0.0482
  27260 WAT        25.1590   17.0940   19.0910 O      27260 WAT       0.0539
  27261 WAT        25.1590   17.0940   19.3410 O      27261 WAT       0.0703
  27262 WAT        25.1590   17.0940   19.5910 O      27262 WAT       0.0764
  27263 WAT        25.1590   17.0940   19.8410 O      27263 WAT       0.0730
  27264 WAT        25.1590   17.0940   20.0910 O      27264 WAT       0.0647
  27265 WAT        25.1590   17.0940   20.3410 O      27265 WAT       0.0553
  27266 WAT        25.1590   17.0940   20.5910 O      27266 WAT       0.0464
  27267 WAT        25.1590   17.0940   21.3410 O      27267 WAT       0.0555
  27268 WAT        25.1590   17.0940   21.5910 O      27268 WAT       0.0781
  27269 WAT        25.1590   17.0940   21.8410 O      27269 WAT       0.0999
  27270 WAT        25.1590   17.0940   22.0910 O      27270 WAT       0.1072
  27271 WAT        25.1590   17.0940   22.3410 O      27271 WAT       0.0952
  27272 WAT        25.1590   17.0940   22.5910 O      27272 WAT       0.0718
  27273 WAT        25.1590   17.0940   22.8410 O      27273 WAT       0.0479
  27274 WAT        25.1590   17.0940   26.5910 O      27274 WAT       0.0636
  27275 WAT        25.1590   17.0940   26.8410 O      27275 WAT       0.0699
  27276 WAT        25.1590   17.0940   27.0910 O      27276 WAT       0.0574
  27277 WAT        25.1590   17.3440   19.0910 O      27277 WAT       0.0544
  27278 WAT        25.1590   17.3440   19.3410 O      27278 WAT       0.0705
  27279 WAT        25.1590   17.3440   19.5910 O      27279 WAT       0.0773
  27280 WAT        25.1590   17.3440   19.8410 O      27280 WAT       0.0758
  27281 WAT        25.1590   17.3440   20.0910 O      27281 WAT       0.0700
  27282 WAT        25.1590   17.3440   20.3410 O      27282 WAT       0.0627
  27283 WAT        25.1590   17.3440   20.5910 O      27283 WAT       0.0538
  27284 WAT        25.1590   17.3440   20.8410 O      27284 WAT       0.0451
  27285 WAT        25.1590   17.3440   21.3410 O      27285 WAT       0.0457
  27286 WAT        25.1590   17.3440   21.5910 O      27286 WAT       0.0585
  27287 WAT        25.1590   17.3440   21.8410 O      27287 WAT       0.0723
  27288 WAT        25.1590   17.3440   22.0910 O      27288 WAT       0.0766
  27289 WAT        25.1590   17.3440   22.3410 O      27289 WAT       0.0671
  27290 WAT        25.1590   17.3440   22.5910 O      27290 WAT       0.0491
  27291 WAT        25.1590   17.5940   19.0910 O      27291 WAT       0.0618
  27292 WAT        25.1590   17.5940   19.3410 O      27292 WAT       0.0760
  27293 WAT        25.1590   17.5940   19.5910 O      27293 WAT       0.0783
  27294 WAT        25.1590   17.5940   19.8410 O      27294 WAT       0.0725
  27295 WAT        25.1590   17.5940   20.0910 O      27295 WAT       0.0652
  27296 WAT        25.1590   17.5940   20.3410 O      27296 WAT       0.0586
  27297 WAT        25.1590   17.5940   20.5910 O      27297 WAT       0.0508
  27298 WAT        25.1590   17.8440   18.8410 O      27298 WAT       0.0481
  27299 WAT        25.1590   17.8440   19.0910 O      27299 WAT       0.0724
  27300 WAT        25.1590   17.8440   19.3410 O      27300 WAT       0.0846
  27301 WAT        25.1590   17.8440   19.5910 O      27301 WAT       0.0802
  27302 WAT        25.1590   17.8440   19.8410 O      27302 WAT       0.0661
  27303 WAT        25.1590   17.8440   20.0910 O      27303 WAT       0.0530
  27304 WAT        25.1590   18.0940   18.8410 O      27304 WAT       0.0566
  27305 WAT        25.1590   18.0940   19.0910 O      27305 WAT       0.0814
  27306 WAT        25.1590   18.0940   19.3410 O      27306 WAT       0.0912
  27307 WAT        25.1590   18.0940   19.5910 O      27307 WAT       0.0807
  27308 WAT        25.1590   18.0940   19.8410 O      27308 WAT       0.0589
  27309 WAT        25.1590   18.3440   18.8410 O      27309 WAT       0.0665
  27310 WAT        25.1590   18.3440   19.0910 O      27310 WAT       0.0887
  27311 WAT        25.1590   18.3440   19.3410 O      27311 WAT       0.0939
  27312 WAT        25.1590   18.3440   19.5910 O      27312 WAT       0.0781
  27313 WAT        25.1590   18.3440   19.8410 O      27313 WAT       0.0514
  27314 WAT        25.1590   18.5940   18.5910 O      27314 WAT       0.0566
  27315 WAT        25.1590   18.5940   18.8410 O      27315 WAT       0.0813
  27316 WAT        25.1590   18.5940   19.0910 O      27316 WAT       0.0968
  27317 WAT        25.1590   18.5940   19.3410 O      27317 WAT       0.0936
  27318 WAT        25.1590   18.5940   19.5910 O      27318 WAT       0.0719
  27319 WAT        25.1590   18.5940   26.8410 O      27319 WAT       0.0654
  27320 WAT        25.1590   18.5940   27.0910 O      27320 WAT       0.0736
  27321 WAT        25.1590   18.5940   27.3410 O      27321 WAT       0.0534
  27322 WAT        25.1590   18.8440   18.3410 O      27322 WAT       0.0547
  27323 WAT        25.1590   18.8440   18.5910 O      27323 WAT       0.0822
  27324 WAT        25.1590   18.8440   18.8410 O      27324 WAT       0.1025
  27325 WAT        25.1590   18.8440   19.0910 O      27325 WAT       0.1065
  27326 WAT        25.1590   18.8440   19.3410 O      27326 WAT       0.0910
  27327 WAT        25.1590   18.8440   19.5910 O      27327 WAT       0.0622
  27328 WAT        25.1590   18.8440   26.5910 O      27328 WAT       0.0928
  27329 WAT        25.1590   18.8440   26.8410 O      27329 WAT       0.1563
  27330 WAT        25.1590   18.8440   27.0910 O      27330 WAT       0.1695
  27331 WAT        25.1590   18.8440   27.3410 O      27331 WAT       0.1183
  27332 WAT        25.1590   18.8440   27.5910 O      27332 WAT       0.0527
  27333 WAT        25.1590   19.0940    5.8410 O      27333 WAT       0.0525
  27334 WAT        25.1590   19.0940    6.0910 O      27334 WAT       0.0629
  27335 WAT        25.1590   19.0940    6.3410 O      27335 WAT       0.0584
  27336 WAT        25.1590   19.0940   18.0910 O      27336 WAT       0.0523
  27337 WAT        25.1590   19.0940   18.3410 O      27337 WAT       0.0857
  27338 WAT        25.1590   19.0940   18.5910 O      27338 WAT       0.1151
  27339 WAT        25.1590   19.0940   18.8410 O      27339 WAT       0.1273
  27340 WAT        25.1590   19.0940   19.0910 O      27340 WAT       0.1162
  27341 WAT        25.1590   19.0940   19.3410 O      27341 WAT       0.0862
  27342 WAT        25.1590   19.0940   19.5910 O      27342 WAT       0.0508
  27343 WAT        25.1590   19.0940   26.3410 O      27343 WAT       0.0668
  27344 WAT        25.1590   19.0940   26.5910 O      27344 WAT       0.1706
  27345 WAT        25.1590   19.0940   26.8410 O      27345 WAT       0.2787
  27346 WAT        25.1590   19.0940   27.0910 O      27346 WAT       0.2921
  27347 WAT        25.1590   19.0940   27.3410 O      27347 WAT       0.1965
  27348 WAT        25.1590   19.0940   27.5910 O      27348 WAT       0.0848
  27349 WAT        25.1590   19.3440    5.5910 O      27349 WAT       0.0640
  27350 WAT        25.1590   19.3440    5.8410 O      27350 WAT       0.0883
  27351 WAT        25.1590   19.3440    6.0910 O      27351 WAT       0.0975
  27352 WAT        25.1590   19.3440    6.3410 O      27352 WAT       0.0821
  27353 WAT        25.1590   19.3440    6.5910 O      27353 WAT       0.0508
  27354 WAT        25.1590   19.3440   18.0910 O      27354 WAT       0.0793
  27355 WAT        25.1590   19.3440   18.3410 O      27355 WAT       0.1196
  27356 WAT        25.1590   19.3440   18.5910 O      27356 WAT       0.1476
  27357 WAT        25.1590   19.3440   18.8410 O      27357 WAT       0.1491
  27358 WAT        25.1590   19.3440   19.0910 O      27358 WAT       0.1223
  27359 WAT        25.1590   19.3440   19.3410 O      27359 WAT       0.0798
  27360 WAT        25.1590   19.3440   26.3410 O      27360 WAT       0.0897
  27361 WAT        25.1590   19.3440   26.5910 O      27361 WAT       0.2242
  27362 WAT        25.1590   19.3440   26.8410 O      27362 WAT       0.3573
  27363 WAT        25.1590   19.3440   27.0910 O      27363 WAT       0.3640
  27364 WAT        25.1590   19.3440   27.3410 O      27364 WAT       0.2374
  27365 WAT        25.1590   19.3440   27.5910 O      27365 WAT       0.0994
  27366 WAT        25.1590   19.5940    5.3410 O      27366 WAT       0.0587
  27367 WAT        25.1590   19.5940    5.5910 O      27367 WAT       0.0917
  27368 WAT        25.1590   19.5940    5.8410 O      27368 WAT       0.1181
  27369 WAT        25.1590   19.5940    6.0910 O      27369 WAT       0.1184
  27370 WAT        25.1590   19.5940    6.3410 O      27370 WAT       0.0892
  27371 WAT        25.1590   19.5940    6.5910 O      27371 WAT       0.0491
  27372 WAT        25.1590   19.5940   17.8410 O      27372 WAT       0.0577
  27373 WAT        25.1590   19.5940   18.0910 O      27373 WAT       0.1018
  27374 WAT        25.1590   19.5940   18.3410 O      27374 WAT       0.1453
  27375 WAT        25.1590   19.5940   18.5910 O      27375 WAT       0.1696
  27376 WAT        25.1590   19.5940   18.8410 O      27376 WAT       0.1606
  27377 WAT        25.1590   19.5940   19.0910 O      27377 WAT       0.1214
  27378 WAT        25.1590   19.5940   19.3410 O      27378 WAT       0.0714
  27379 WAT        25.1590   19.5940   26.3410 O      27379 WAT       0.0833
  27380 WAT        25.1590   19.5940   26.5910 O      27380 WAT       0.2055
  27381 WAT        25.1590   19.5940   26.8410 O      27381 WAT       0.3216
  27382 WAT        25.1590   19.5940   27.0910 O      27382 WAT       0.3208
  27383 WAT        25.1590   19.5940   27.3410 O      27383 WAT       0.2045
  27384 WAT        25.1590   19.5940   27.5910 O      27384 WAT       0.0835
  27385 WAT        25.1590   19.8440    5.3410 O      27385 WAT       0.0681
  27386 WAT        25.1590   19.8440    5.5910 O      27386 WAT       0.1017
  27387 WAT        25.1590   19.8440    5.8410 O      27387 WAT       0.1199
  27388 WAT        25.1590   19.8440    6.0910 O      27388 WAT       0.1075
  27389 WAT        25.1590   19.8440    6.3410 O      27389 WAT       0.0717
  27390 WAT        25.1590   19.8440   17.8410 O      27390 WAT       0.0632
  27391 WAT        25.1590   19.8440   18.0910 O      27391 WAT       0.1097
  27392 WAT        25.1590   19.8440   18.3410 O      27392 WAT       0.1530
  27393 WAT        25.1590   19.8440   18.5910 O      27393 WAT       0.1730
  27394 WAT        25.1590   19.8440   18.8410 O      27394 WAT       0.1570
  27395 WAT        25.1590   19.8440   19.0910 O      27395 WAT       0.1116
  27396 WAT        25.1590   19.8440   19.3410 O      27396 WAT       0.0603
  27397 WAT        25.1590   19.8440   26.3410 O      27397 WAT       0.0524
  27398 WAT        25.1590   19.8440   26.5910 O      27398 WAT       0.1293
  27399 WAT        25.1590   19.8440   26.8410 O      27399 WAT       0.2006
  27400 WAT        25.1590   19.8440   27.0910 O      27400 WAT       0.1981
  27401 WAT        25.1590   19.8440   27.3410 O      27401 WAT       0.1250
  27402 WAT        25.1590   19.8440   27.5910 O      27402 WAT       0.0501
  27403 WAT        25.1590   20.0940    5.3410 O      27403 WAT       0.0626
  27404 WAT        25.1590   20.0940    5.5910 O      27404 WAT       0.0858
  27405 WAT        25.1590   20.0940    5.8410 O      27405 WAT       0.0907
  27406 WAT        25.1590   20.0940    6.0910 O      27406 WAT       0.0718
  27407 WAT        25.1590   20.0940   17.8410 O      27407 WAT       0.0557
  27408 WAT        25.1590   20.0940   18.0910 O      27408 WAT       0.0982
  27409 WAT        25.1590   20.0940   18.3410 O      27409 WAT       0.1380
  27410 WAT        25.1590   20.0940   18.5910 O      27410 WAT       0.1552
  27411 WAT        25.1590   20.0940   18.8410 O      27411 WAT       0.1375
  27412 WAT        25.1590   20.0940   19.0910 O      27412 WAT       0.0936
  27413 WAT        25.1590   20.0940   19.3410 O      27413 WAT       0.0474
  27414 WAT        25.1590   20.0940   26.5910 O      27414 WAT       0.0556
  27415 WAT        25.1590   20.0940   26.8410 O      27415 WAT       0.0874
  27416 WAT        25.1590   20.0940   27.0910 O      27416 WAT       0.0873
  27417 WAT        25.1590   20.0940   27.3410 O      27417 WAT       0.0560
  27418 WAT        25.1590   20.3440    5.3410 O      27418 WAT       0.0489
  27419 WAT        25.1590   20.3440    5.5910 O      27419 WAT       0.0570
  27420 WAT        25.1590   20.3440    5.8410 O      27420 WAT       0.0519
  27421 WAT        25.1590   20.3440   18.0910 O      27421 WAT       0.0717
  27422 WAT        25.1590   20.3440   18.3410 O      27422 WAT       0.1045
  27423 WAT        25.1590   20.3440   18.5910 O      27423 WAT       0.1196
  27424 WAT        25.1590   20.3440   18.8410 O      27424 WAT       0.1056
  27425 WAT        25.1590   20.3440   19.0910 O      27425 WAT       0.0703
  27426 WAT        25.1590   20.5940   18.3410 O      27426 WAT       0.0647
  27427 WAT        25.1590   20.5940   18.5910 O      27427 WAT       0.0771
  27428 WAT        25.1590   20.5940   18.8410 O      27428 WAT       0.0696
  27429 WAT        25.1590   20.5940   19.0910 O      27429 WAT       0.0468
  27430 WAT        25.1590   20.8440    3.5910 O      27430 WAT       0.0466
  27431 WAT        25.1590   20.8440    3.8410 O      27431 WAT       0.0590
  27432 WAT        25.1590   20.8440    4.0910 O      27432 WAT       0.0652
  27433 WAT        25.1590   20.8440    4.3410 O      27433 WAT       0.0618
  27434 WAT        25.1590   20.8440    4.5910 O      27434 WAT       0.0524
  27435 WAT        25.1590   21.0940    3.0910 O      27435 WAT       0.0505
  27436 WAT        25.1590   21.0940    3.3410 O      27436 WAT       0.0754
  27437 WAT        25.1590   21.0940    3.5910 O      27437 WAT       0.0984
  27438 WAT        25.1590   21.0940    3.8410 O      27438 WAT       0.1105
  27439 WAT        25.1590   21.0940    4.0910 O      27439 WAT       0.1057
  27440 WAT        25.1590   21.0940    4.3410 O      27440 WAT       0.0858
  27441 WAT        25.1590   21.0940    4.5910 O      27441 WAT       0.0609
  27442 WAT        25.1590   21.3440    2.8410 O      27442 WAT       0.0596
  27443 WAT        25.1590   21.3440    3.0910 O      27443 WAT       0.1025
  27444 WAT        25.1590   21.3440    3.3410 O      27444 WAT       0.1449
  27445 WAT        25.1590   21.3440    3.5910 O      27445 WAT       0.1658
  27446 WAT        25.1590   21.3440    3.8410 O      27446 WAT       0.1567
  27447 WAT        25.1590   21.3440    4.0910 O      27447 WAT       0.1249
  27448 WAT        25.1590   21.3440    4.3410 O      27448 WAT       0.0847
  27449 WAT        25.1590   21.3440    4.5910 O      27449 WAT       0.0497
  27450 WAT        25.1590   21.5940    2.5910 O      27450 WAT       0.0510
  27451 WAT        25.1590   21.5940    2.8410 O      27451 WAT       0.1062
  27452 WAT        25.1590   21.5940    3.0910 O      27452 WAT       0.1755
  27453 WAT        25.1590   21.5940    3.3410 O      27453 WAT       0.2218
  27454 WAT        25.1590   21.5940    3.5910 O      27454 WAT       0.2165
  27455 WAT        25.1590   21.5940    3.8410 O      27455 WAT       0.1685
  27456 WAT        25.1590   21.5940    4.0910 O      27456 WAT       0.1086
  27457 WAT        25.1590   21.5940    4.3410 O      27457 WAT       0.0596
  27458 WAT        25.1590   21.8440    2.5910 O      27458 WAT       0.0767
  27459 WAT        25.1590   21.8440    2.8410 O      27459 WAT       0.1576
  27460 WAT        25.1590   21.8440    3.0910 O      27460 WAT       0.2401
  27461 WAT        25.1590   21.8440    3.3410 O      27461 WAT       0.2675
  27462 WAT        25.1590   21.8440    3.5910 O      27462 WAT       0.2213
  27463 WAT        25.1590   21.8440    3.8410 O      27463 WAT       0.1405
  27464 WAT        25.1590   21.8440    4.0910 O      27464 WAT       0.0715
  27465 WAT        25.1590   21.8440   27.5910 O      27465 WAT       0.0463
  27466 WAT        25.1590   21.8440   27.8410 O      27466 WAT       0.0553
  27467 WAT        25.1590   22.0940    2.5910 O      27467 WAT       0.0956
  27468 WAT        25.1590   22.0940    2.8410 O      27468 WAT       0.1862
  27469 WAT        25.1590   22.0940    3.0910 O      27469 WAT       0.2588
  27470 WAT        25.1590   22.0940    3.3410 O      27470 WAT       0.2550
  27471 WAT        25.1590   22.0940    3.5910 O      27471 WAT       0.1802
  27472 WAT        25.1590   22.0940    3.8410 O      27472 WAT       0.0936
  27473 WAT        25.1590   22.0940   19.3410 O      27473 WAT       0.0463
  27474 WAT        25.1590   22.0940   27.3410 O      27474 WAT       0.0508
  27475 WAT        25.1590   22.0940   27.5910 O      27475 WAT       0.1028
  27476 WAT        25.1590   22.0940   27.8410 O      27476 WAT       0.1306
  27477 WAT        25.1590   22.0940   28.0910 O      27477 WAT       0.1056
  27478 WAT        25.1590   22.0940   28.3410 O      27478 WAT       0.0552
  27479 WAT        25.1590   22.3440    2.5910 O      27479 WAT       0.0973
  27480 WAT        25.1590   22.3440    2.8410 O      27480 WAT       0.1759
  27481 WAT        25.1590   22.3440    3.0910 O      27481 WAT       0.2219
  27482 WAT        25.1590   22.3440    3.3410 O      27482 WAT       0.1943
  27483 WAT        25.1590   22.3440    3.5910 O      27483 WAT       0.1187
  27484 WAT        25.1590   22.3440    3.8410 O      27484 WAT       0.0510
  27485 WAT        25.1590   22.3440   19.0910 O      27485 WAT       0.0451
  27486 WAT        25.1590   22.3440   19.3410 O      27486 WAT       0.0591
  27487 WAT        25.1590   22.3440   19.5910 O      27487 WAT       0.0549
  27488 WAT        25.1590   22.3440   27.3410 O      27488 WAT       0.0866
  27489 WAT        25.1590   22.3440   27.5910 O      27489 WAT       0.1801
  27490 WAT        25.1590   22.3440   27.8410 O      27490 WAT       0.2357
  27491 WAT        25.1590   22.3440   28.0910 O      27491 WAT       0.1961
  27492 WAT        25.1590   22.3440   28.3410 O      27492 WAT       0.1059
  27493 WAT        25.1590   22.5940    2.5910 O      27493 WAT       0.0858
  27494 WAT        25.1590   22.5940    2.8410 O      27494 WAT       0.1412
  27495 WAT        25.1590   22.5940    3.0910 O      27495 WAT       0.1596
  27496 WAT        25.1590   22.5940    3.3410 O      27496 WAT       0.1234
  27497 WAT        25.1590   22.5940    3.5910 O      27497 WAT       0.0652
  27498 WAT        25.1590   22.5940   19.0910 O      27498 WAT       0.0464
  27499 WAT        25.1590   22.5940   19.3410 O      27499 WAT       0.0654
  27500 WAT        25.1590   22.5940   19.5910 O      27500 WAT       0.0657
  27501 WAT        25.1590   22.5940   19.8410 O      27501 WAT       0.0470
  27502 WAT        25.1590   22.5940   27.3410 O      27502 WAT       0.1074
  27503 WAT        25.1590   22.5940   27.5910 O      27503 WAT       0.2257
  27504 WAT        25.1590   22.5940   27.8410 O      27504 WAT       0.2996
  27505 WAT        25.1590   22.5940   28.0910 O      27505 WAT       0.2535
  27506 WAT        25.1590   22.5940   28.3410 O      27506 WAT       0.1399
  27507 WAT        25.1590   22.5940   28.5910 O      27507 WAT       0.0534
  27508 WAT        25.1590   22.8440    2.5910 O      27508 WAT       0.0744
  27509 WAT        25.1590   22.8440    2.8410 O      27509 WAT       0.1101
  27510 WAT        25.1590   22.8440    3.0910 O      27510 WAT       0.1097
  27511 WAT        25.1590   22.8440    3.3410 O      27511 WAT       0.0733
  27512 WAT        25.1590   22.8440   19.3410 O      27512 WAT       0.0642
  27513 WAT        25.1590   22.8440   19.5910 O      27513 WAT       0.0699
  27514 WAT        25.1590   22.8440   19.8410 O      27514 WAT       0.0549
  27515 WAT        25.1590   22.8440   27.3410 O      27515 WAT       0.0965
  27516 WAT        25.1590   22.8440   27.5910 O      27516 WAT       0.1989
  27517 WAT        25.1590   22.8440   27.8410 O      27517 WAT       0.2628
  27518 WAT        25.1590   22.8440   28.0910 O      27518 WAT       0.2237
  27519 WAT        25.1590   22.8440   28.3410 O      27519 WAT       0.1257
  27520 WAT        25.1590   22.8440   28.5910 O      27520 WAT       0.0500
  27521 WAT        25.1590   23.0940    2.5910 O      27521 WAT       0.0676
  27522 WAT        25.1590   23.0940    2.8410 O      27522 WAT       0.0924
  27523 WAT        25.1590   23.0940    3.0910 O      27523 WAT       0.0829
  27524 WAT        25.1590   23.0940    3.3410 O      27524 WAT       0.0485
  27525 WAT        25.1590   23.0940   19.3410 O      27525 WAT       0.0584
  27526 WAT        25.1590   23.0940   19.5910 O      27526 WAT       0.0683
  27527 WAT        25.1590   23.0940   19.8410 O      27527 WAT       0.0586
  27528 WAT        25.1590   23.0940   27.3410 O      27528 WAT       0.0706
  27529 WAT        25.1590   23.0940   27.5910 O      27529 WAT       0.1311
  27530 WAT        25.1590   23.0940   27.8410 O      27530 WAT       0.1644
  27531 WAT        25.1590   23.0940   28.0910 O      27531 WAT       0.1374
  27532 WAT        25.1590   23.0940   28.3410 O      27532 WAT       0.0779
  27533 WAT        25.1590   23.3440    2.5910 O      27533 WAT       0.0591
  27534 WAT        25.1590   23.3440    2.8410 O      27534 WAT       0.0782
  27535 WAT        25.1590   23.3440    3.0910 O      27535 WAT       0.0668
  27536 WAT        25.1590   23.3440   19.3410 O      27536 WAT       0.0516
  27537 WAT        25.1590   23.3440   19.5910 O      27537 WAT       0.0633
  27538 WAT        25.1590   23.3440   19.8410 O      27538 WAT       0.0580
  27539 WAT        25.1590   23.3440   27.3410 O      27539 WAT       0.0558
  27540 WAT        25.1590   23.3440   27.5910 O      27540 WAT       0.0796
  27541 WAT        25.1590   23.3440   27.8410 O      27541 WAT       0.0842
  27542 WAT        25.1590   23.3440   28.0910 O      27542 WAT       0.0644
  27543 WAT        25.1590   23.5940    2.8410 O      27543 WAT       0.0591
  27544 WAT        25.1590   23.5940    3.0910 O      27544 WAT       0.0501
  27545 WAT        25.1590   23.5940   19.3410 O      27545 WAT       0.0458
  27546 WAT        25.1590   23.5940   19.5910 O      27546 WAT       0.0570
  27547 WAT        25.1590   23.5940   19.8410 O      27547 WAT       0.0545
  27548 WAT        25.1590   23.5940   27.3410 O      27548 WAT       0.0561
  27549 WAT        25.1590   23.5940   27.5910 O      27549 WAT       0.0584
  27550 WAT        25.1590   23.5940   27.8410 O      27550 WAT       0.0469
  27551 WAT        25.1590   23.8440   19.5910 O      27551 WAT       0.0505
  27552 WAT        25.1590   23.8440   19.8410 O      27552 WAT       0.0491
  27553 WAT        25.1590   23.8440   27.0910 O      27553 WAT       0.0487
  27554 WAT        25.1590   23.8440   27.3410 O      27554 WAT       0.0569
  27555 WAT        25.1590   23.8440   27.5910 O      27555 WAT       0.0497
  27556 WAT        25.1590   24.0940   27.0910 O      27556 WAT       0.0458
  27557 WAT        25.1590   24.0940   27.3410 O      27557 WAT       0.0482
  27558 WAT        25.1590   24.3440   23.8410 O      27558 WAT       0.0525
  27559 WAT        25.1590   24.3440   24.0910 O      27559 WAT       0.0616
  27560 WAT        25.1590   24.3440   24.3410 O      27560 WAT       0.0619
  27561 WAT        25.1590   24.3440   24.5910 O      27561 WAT       0.0571
  27562 WAT        25.1590   24.3440   24.8410 O      27562 WAT       0.0521
  27563 WAT        25.1590   24.3440   25.0910 O      27563 WAT       0.0493
  27564 WAT        25.1590   24.3440   25.3410 O      27564 WAT       0.0474
  27565 WAT        25.1590   24.5940   23.8410 O      27565 WAT       0.0479
  27566 WAT        25.1590   24.5940   24.0910 O      27566 WAT       0.0610
  27567 WAT        25.1590   24.5940   24.3410 O      27567 WAT       0.0681
  27568 WAT        25.1590   24.5940   24.5910 O      27568 WAT       0.0705
  27569 WAT        25.1590   24.5940   24.8410 O      27569 WAT       0.0713
  27570 WAT        25.1590   24.5940   25.0910 O      27570 WAT       0.0719
  27571 WAT        25.1590   24.5940   25.3410 O      27571 WAT       0.0704
  27572 WAT        25.1590   24.5940   25.5910 O      27572 WAT       0.0641
  27573 WAT        25.1590   24.5940   25.8410 O      27573 WAT       0.0526
  27574 WAT        25.1590   24.5940   27.8410 O      27574 WAT       0.0454
  27575 WAT        25.1590   24.5940   28.0910 O      27575 WAT       0.0516
  27576 WAT        25.1590   24.5940   28.3410 O      27576 WAT       0.0531
  27577 WAT        25.1590   24.5940   28.5910 O      27577 WAT       0.0493
  27578 WAT        25.1590   24.8440   24.0910 O      27578 WAT       0.0460
  27579 WAT        25.1590   24.8440   24.3410 O      27579 WAT       0.0561
  27580 WAT        25.1590   24.8440   24.5910 O      27580 WAT       0.0635
  27581 WAT        25.1590   24.8440   24.8410 O      27581 WAT       0.0689
  27582 WAT        25.1590   24.8440   25.0910 O      27582 WAT       0.0720
  27583 WAT        25.1590   24.8440   25.3410 O      27583 WAT       0.0711
  27584 WAT        25.1590   24.8440   25.5910 O      27584 WAT       0.0638
  27585 WAT        25.1590   24.8440   25.8410 O      27585 WAT       0.0512
  27586 WAT        25.1590   24.8440   27.3410 O      27586 WAT       0.0468
  27587 WAT        25.1590   24.8440   27.5910 O      27587 WAT       0.0595
  27588 WAT        25.1590   24.8440   27.8410 O      27588 WAT       0.0735
  27589 WAT        25.1590   24.8440   28.0910 O      27589 WAT       0.0840
  27590 WAT        25.1590   24.8440   28.3410 O      27590 WAT       0.0859
  27591 WAT        25.1590   24.8440   28.5910 O      27591 WAT       0.0784
  27592 WAT        25.1590   24.8440   28.8410 O      27592 WAT       0.0654
  27593 WAT        25.1590   24.8440   29.0910 O      27593 WAT       0.0502
  27594 WAT        25.1590   25.0940   24.5910 O      27594 WAT       0.0470
  27595 WAT        25.1590   25.0940   24.8410 O      27595 WAT       0.0511
  27596 WAT        25.1590   25.0940   25.0910 O      27596 WAT       0.0532
  27597 WAT        25.1590   25.0940   25.3410 O      27597 WAT       0.0523
  27598 WAT        25.1590   25.0940   25.5910 O      27598 WAT       0.0470
  27599 WAT        25.1590   25.0940   27.0910 O      27599 WAT       0.0568
  27600 WAT        25.1590   25.0940   27.3410 O      27600 WAT       0.0738
  27601 WAT        25.1590   25.0940   27.5910 O      27601 WAT       0.0908
  27602 WAT        25.1590   25.0940   27.8410 O      27602 WAT       0.1061
  27603 WAT        25.1590   25.0940   28.0910 O      27603 WAT       0.1152
  27604 WAT        25.1590   25.0940   28.3410 O      27604 WAT       0.1129
  27605 WAT        25.1590   25.0940   28.5910 O      27605 WAT       0.0991
  27606 WAT        25.1590   25.0940   28.8410 O      27606 WAT       0.0788
  27607 WAT        25.1590   25.0940   29.0910 O      27607 WAT       0.0570
  27608 WAT        25.1590   25.3440   26.8410 O      27608 WAT       0.0551
  27609 WAT        25.1590   25.3440   27.0910 O      27609 WAT       0.0766
  27610 WAT        25.1590   25.3440   27.3410 O      27610 WAT       0.0972
  27611 WAT        25.1590   25.3440   27.5910 O      27611 WAT       0.1131
  27612 WAT        25.1590   25.3440   27.8410 O      27612 WAT       0.1230
  27613 WAT        25.1590   25.3440   28.0910 O      27613 WAT       0.1245
  27614 WAT        25.1590   25.3440   28.3410 O      27614 WAT       0.1150
  27615 WAT        25.1590   25.3440   28.5910 O      27615 WAT       0.0959
  27616 WAT        25.1590   25.3440   28.8410 O      27616 WAT       0.0722
  27617 WAT        25.1590   25.3440   29.0910 O      27617 WAT       0.0494
  27618 WAT        25.1590   25.5940   22.5910 O      27618 WAT       0.0470
  27619 WAT        25.1590   25.5940   22.8410 O      27619 WAT       0.0592
  27620 WAT        25.1590   25.5940   23.0910 O      27620 WAT       0.0669
  27621 WAT        25.1590   25.5940   23.3410 O      27621 WAT       0.0690
  27622 WAT        25.1590   25.5940   23.5910 O      27622 WAT       0.0666
  27623 WAT        25.1590   25.5940   23.8410 O      27623 WAT       0.0623
  27624 WAT        25.1590   25.5940   24.0910 O      27624 WAT       0.0580
  27625 WAT        25.1590   25.5940   24.3410 O      27625 WAT       0.0530
  27626 WAT        25.1590   25.5940   24.5910 O      27626 WAT       0.0459
  27627 WAT        25.1590   25.5940   26.5910 O      27627 WAT       0.0461
  27628 WAT        25.1590   25.5940   26.8410 O      27628 WAT       0.0630
  27629 WAT        25.1590   25.5940   27.0910 O      27629 WAT       0.0835
  27630 WAT        25.1590   25.5940   27.3410 O      27630 WAT       0.1010
  27631 WAT        25.1590   25.5940   27.5910 O      27631 WAT       0.1105
  27632 WAT        25.1590   25.5940   27.8410 O      27632 WAT       0.1113
  27633 WAT        25.1590   25.5940   28.0910 O      27633 WAT       0.1040
  27634 WAT        25.1590   25.5940   28.3410 O      27634 WAT       0.0895
  27635 WAT        25.1590   25.5940   28.5910 O      27635 WAT       0.0703
  27636 WAT        25.1590   25.5940   28.8410 O      27636 WAT       0.0501
  27637 WAT        25.1590   25.8440   22.0910 O      27637 WAT       0.0460
  27638 WAT        25.1590   25.8440   22.3410 O      27638 WAT       0.0687
  27639 WAT        25.1590   25.8440   22.5910 O      27639 WAT       0.0907
  27640 WAT        25.1590   25.8440   22.8410 O      27640 WAT       0.1051
  27641 WAT        25.1590   25.8440   23.0910 O      27641 WAT       0.1089
  27642 WAT        25.1590   25.8440   23.3410 O      27642 WAT       0.1038
  27643 WAT        25.1590   25.8440   23.5910 O      27643 WAT       0.0936
  27644 WAT        25.1590   25.8440   23.8410 O      27644 WAT       0.0827
  27645 WAT        25.1590   25.8440   24.0910 O      27645 WAT       0.0740
  27646 WAT        25.1590   25.8440   24.3410 O      27646 WAT       0.0662
  27647 WAT        25.1590   25.8440   24.5910 O      27647 WAT       0.0566
  27648 WAT        25.1590   25.8440   24.8410 O      27648 WAT       0.0462
  27649 WAT        25.1590   25.8440   26.3410 O      27649 WAT       0.0463
  27650 WAT        25.1590   25.8440   26.5910 O      27650 WAT       0.0530
  27651 WAT        25.1590   25.8440   26.8410 O      27651 WAT       0.0643
  27652 WAT        25.1590   25.8440   27.0910 O      27652 WAT       0.0776
  27653 WAT        25.1590   25.8440   27.3410 O      27653 WAT       0.0873
  27654 WAT        25.1590   25.8440   27.5910 O      27654 WAT       0.0885
  27655 WAT        25.1590   25.8440   27.8410 O      27655 WAT       0.0815
  27656 WAT        25.1590   25.8440   28.0910 O      27656 WAT       0.0695
  27657 WAT        25.1590   25.8440   28.3410 O      27657 WAT       0.0551
  27658 WAT        25.1590   26.0940   15.8410 O      27658 WAT       0.0469
  27659 WAT        25.1590   26.0940   16.0910 O      27659 WAT       0.0784
  27660 WAT        25.1590   26.0940   16.3410 O      27660 WAT       0.0925
  27661 WAT        25.1590   26.0940   16.5910 O      27661 WAT       0.0798
  27662 WAT        25.1590   26.0940   16.8410 O      27662 WAT       0.0515
  27663 WAT        25.1590   26.0940   21.8410 O      27663 WAT       0.0471
  27664 WAT        25.1590   26.0940   22.0910 O      27664 WAT       0.0729
  27665 WAT        25.1590   26.0940   22.3410 O      27665 WAT       0.1035
  27666 WAT        25.1590   26.0940   22.5910 O      27666 WAT       0.1278
  27667 WAT        25.1590   26.0940   22.8410 O      27667 WAT       0.1363
  27668 WAT        25.1590   26.0940   23.0910 O      27668 WAT       0.1294
  27669 WAT        25.1590   26.0940   23.3410 O      27669 WAT       0.1136
  27670 WAT        25.1590   26.0940   23.5910 O      27670 WAT       0.0956
  27671 WAT        25.1590   26.0940   23.8410 O      27671 WAT       0.0806
  27672 WAT        25.1590   26.0940   24.0910 O      27672 WAT       0.0707
  27673 WAT        25.1590   26.0940   24.3410 O      27673 WAT       0.0642
  27674 WAT        25.1590   26.0940   24.5910 O      27674 WAT       0.0571
  27675 WAT        25.1590   26.0940   24.8410 O      27675 WAT       0.0490
  27676 WAT        25.1590   26.0940   25.5910 O      27676 WAT       0.0477
  27677 WAT        25.1590   26.0940   25.8410 O      27677 WAT       0.0522
  27678 WAT        25.1590   26.0940   26.0910 O      27678 WAT       0.0545
  27679 WAT        25.1590   26.0940   26.3410 O      27679 WAT       0.0550
  27680 WAT        25.1590   26.0940   26.5910 O      27680 WAT       0.0566
  27681 WAT        25.1590   26.0940   26.8410 O      27681 WAT       0.0610
  27682 WAT        25.1590   26.0940   27.0910 O      27682 WAT       0.0663
  27683 WAT        25.1590   26.0940   27.3410 O      27683 WAT       0.0685
  27684 WAT        25.1590   26.0940   27.5910 O      27684 WAT       0.0643
  27685 WAT        25.1590   26.0940   27.8410 O      27685 WAT       0.0542
  27686 WAT        25.1590   26.3440   15.8410 O      27686 WAT       0.0910
  27687 WAT        25.1590   26.3440   16.0910 O      27687 WAT       0.1379
  27688 WAT        25.1590   26.3440   16.3410 O      27688 WAT       0.1472
  27689 WAT        25.1590   26.3440   16.5910 O      27689 WAT       0.1143
  27690 WAT        25.1590   26.3440   16.8410 O      27690 WAT       0.0662
  27691 WAT        25.1590   26.3440   21.8410 O      27691 WAT       0.0552
  27692 WAT        25.1590   26.3440   22.0910 O      27692 WAT       0.0814
  27693 WAT        25.1590   26.3440   22.3410 O      27693 WAT       0.1100
  27694 WAT        25.1590   26.3440   22.5910 O      27694 WAT       0.1280
  27695 WAT        25.1590   26.3440   22.8410 O      27695 WAT       0.1273
  27696 WAT        25.1590   26.3440   23.0910 O      27696 WAT       0.1117
  27697 WAT        25.1590   26.3440   23.3410 O      27697 WAT       0.0906
  27698 WAT        25.1590   26.3440   23.5910 O      27698 WAT       0.0711
  27699 WAT        25.1590   26.3440   23.8410 O      27699 WAT       0.0571
  27700 WAT        25.1590   26.3440   24.0910 O      27700 WAT       0.0495
  27701 WAT        25.1590   26.3440   24.3410 O      27701 WAT       0.0463
  27702 WAT        25.1590   26.3440   25.5910 O      27702 WAT       0.0491
  27703 WAT        25.1590   26.3440   25.8410 O      27703 WAT       0.0551
  27704 WAT        25.1590   26.3440   26.0910 O      27704 WAT       0.0569
  27705 WAT        25.1590   26.3440   26.3410 O      27705 WAT       0.0551
  27706 WAT        25.1590   26.3440   26.5910 O      27706 WAT       0.0529
  27707 WAT        25.1590   26.3440   26.8410 O      27707 WAT       0.0524
  27708 WAT        25.1590   26.3440   27.0910 O      27708 WAT       0.0529
  27709 WAT        25.1590   26.3440   27.3410 O      27709 WAT       0.0518
  27710 WAT        25.1590   26.3440   27.5910 O      27710 WAT       0.0465
  27711 WAT        25.1590   26.5940   15.5910 O      27711 WAT       0.0568
  27712 WAT        25.1590   26.5940   15.8410 O      27712 WAT       0.1163
  27713 WAT        25.1590   26.5940   16.0910 O      27713 WAT       0.1618
  27714 WAT        25.1590   26.5940   16.3410 O      27714 WAT       0.1579
  27715 WAT        25.1590   26.5940   16.5910 O      27715 WAT       0.1112
  27716 WAT        25.1590   26.5940   16.8410 O      27716 WAT       0.0582
  27717 WAT        25.1590   26.5940   19.8410 O      27717 WAT       0.0556
  27718 WAT        25.1590   26.5940   20.0910 O      27718 WAT       0.0617
  27719 WAT        25.1590   26.5940   20.3410 O      27719 WAT       0.0594
  27720 WAT        25.1590   26.5940   20.5910 O      27720 WAT       0.0509
  27721 WAT        25.1590   26.5940   21.8410 O      27721 WAT       0.0459
  27722 WAT        25.1590   26.5940   22.0910 O      27722 WAT       0.0636
  27723 WAT        25.1590   26.5940   22.3410 O      27723 WAT       0.0820
  27724 WAT        25.1590   26.5940   22.5910 O      27724 WAT       0.0909
  27725 WAT        25.1590   26.5940   22.8410 O      27725 WAT       0.0856
  27726 WAT        25.1590   26.5940   23.0910 O      27726 WAT       0.0703
  27727 WAT        25.1590   26.5940   23.3410 O      27727 WAT       0.0530
  27728 WAT        25.1590   26.5940   25.8410 O      27728 WAT       0.0456
  27729 WAT        25.1590   26.5940   26.0910 O      27729 WAT       0.0469
  27730 WAT        25.1590   26.8440   15.5910 O      27730 WAT       0.0526
  27731 WAT        25.1590   26.8440   15.8410 O      27731 WAT       0.0997
  27732 WAT        25.1590   26.8440   16.0910 O      27732 WAT       0.1283
  27733 WAT        25.1590   26.8440   16.3410 O      27733 WAT       0.1155
  27734 WAT        25.1590   26.8440   16.5910 O      27734 WAT       0.0747
  27735 WAT        25.1590   26.8440   19.5910 O      27735 WAT       0.0601
  27736 WAT        25.1590   26.8440   19.8410 O      27736 WAT       0.0742
  27737 WAT        25.1590   26.8440   20.0910 O      27737 WAT       0.0793
  27738 WAT        25.1590   26.8440   20.3410 O      27738 WAT       0.0724
  27739 WAT        25.1590   26.8440   20.5910 O      27739 WAT       0.0576
  27740 WAT        25.1590   26.8440   22.5910 O      27740 WAT       0.0462
  27741 WAT        25.1590   27.0940   15.8410 O      27741 WAT       0.0581
  27742 WAT        25.1590   27.0940   16.0910 O      27742 WAT       0.0696
  27743 WAT        25.1590   27.0940   16.3410 O      27743 WAT       0.0583
  27744 WAT        25.1590   27.0940   19.3410 O      27744 WAT       0.0499
  27745 WAT        25.1590   27.0940   19.5910 O      27745 WAT       0.0659
  27746 WAT        25.1590   27.0940   19.8410 O      27746 WAT       0.0771
  27747 WAT        25.1590   27.0940   20.0910 O      27747 WAT       0.0772
  27748 WAT        25.1590   27.0940   20.3410 O      27748 WAT       0.0654
  27749 WAT        25.1590   27.0940   20.5910 O      27749 WAT       0.0475
  27750 WAT        25.1590   27.3440   19.3410 O      27750 WAT       0.0465
  27751 WAT        25.1590   27.3440   19.5910 O      27751 WAT       0.0571
  27752 WAT        25.1590   27.3440   19.8410 O      27752 WAT       0.0615
  27753 WAT        25.1590   27.3440   20.0910 O      27753 WAT       0.0565
  27754 WAT        25.1590   28.3440   15.5910 O      27754 WAT       0.0451
  27755 WAT        25.1590   28.5940   15.3410 O      27755 WAT       0.0570
  27756 WAT        25.1590   28.5940   15.5910 O      27756 WAT       0.0739
  27757 WAT        25.1590   28.5940   15.8410 O      27757 WAT       0.0689
  27758 WAT        25.1590   28.5940   16.0910 O      27758 WAT       0.0470
  27759 WAT        25.1590   28.5940   18.3410 O      27759 WAT       0.0564
  27760 WAT        25.1590   28.5940   18.5910 O      27760 WAT       0.0638
  27761 WAT        25.1590   28.5940   18.8410 O      27761 WAT       0.0525
  27762 WAT        25.1590   28.8440   15.3410 O      27762 WAT       0.0692
  27763 WAT        25.1590   28.8440   15.5910 O      27763 WAT       0.0921
  27764 WAT        25.1590   28.8440   15.8410 O      27764 WAT       0.0881
  27765 WAT        25.1590   28.8440   16.0910 O      27765 WAT       0.0613
  27766 WAT        25.1590   28.8440   18.0910 O      27766 WAT       0.0669
  27767 WAT        25.1590   28.8440   18.3410 O      27767 WAT       0.0993
  27768 WAT        25.1590   28.8440   18.5910 O      27768 WAT       0.1059
  27769 WAT        25.1590   28.8440   18.8410 O      27769 WAT       0.0811
  27770 WAT        25.1590   29.0940   15.3410 O      27770 WAT       0.0644
  27771 WAT        25.1590   29.0940   15.5910 O      27771 WAT       0.0883
  27772 WAT        25.1590   29.0940   15.8410 O      27772 WAT       0.0871
  27773 WAT        25.1590   29.0940   16.0910 O      27773 WAT       0.0622
  27774 WAT        25.1590   29.0940   17.8410 O      27774 WAT       0.0559
  27775 WAT        25.1590   29.0940   18.0910 O      27775 WAT       0.1074
  27776 WAT        25.1590   29.0940   18.3410 O      27776 WAT       0.1480
  27777 WAT        25.1590   29.0940   18.5910 O      27777 WAT       0.1472
  27778 WAT        25.1590   29.0940   18.8410 O      27778 WAT       0.1055
  27779 WAT        25.1590   29.0940   19.0910 O      27779 WAT       0.0543
  27780 WAT        25.1590   29.3440   15.3410 O      27780 WAT       0.0460
  27781 WAT        25.1590   29.3440   15.5910 O      27781 WAT       0.0650
  27782 WAT        25.1590   29.3440   15.8410 O      27782 WAT       0.0666
  27783 WAT        25.1590   29.3440   16.0910 O      27783 WAT       0.0493
  27784 WAT        25.1590   29.3440   17.8410 O      27784 WAT       0.0869
  27785 WAT        25.1590   29.3440   18.0910 O      27785 WAT       0.1510
  27786 WAT        25.1590   29.3440   18.3410 O      27786 WAT       0.1894
  27787 WAT        25.1590   29.3440   18.5910 O      27787 WAT       0.1726
  27788 WAT        25.1590   29.3440   18.8410 O      27788 WAT       0.1142
  27789 WAT        25.1590   29.3440   19.0910 O      27789 WAT       0.0547
  27790 WAT        25.1590   29.5940   17.5910 O      27790 WAT       0.0529
  27791 WAT        25.1590   29.5940   17.8410 O      27791 WAT       0.1187
  27792 WAT        25.1590   29.5940   18.0910 O      27792 WAT       0.1867
  27793 WAT        25.1590   29.5940   18.3410 O      27793 WAT       0.2108
  27794 WAT        25.1590   29.5940   18.5910 O      27794 WAT       0.1733
  27795 WAT        25.1590   29.5940   18.8410 O      27795 WAT       0.1043
  27796 WAT        25.1590   29.5940   19.0910 O      27796 WAT       0.0459
  27797 WAT        25.1590   29.5940   26.8410 O      27797 WAT       0.0494
  27798 WAT        25.1590   29.5940   27.0910 O      27798 WAT       0.0498
  27799 WAT        25.1590   29.5940   27.3410 O      27799 WAT       0.0455
  27800 WAT        25.1590   29.8440   17.5910 O      27800 WAT       0.0677
  27801 WAT        25.1590   29.8440   17.8410 O      27801 WAT       0.1404
  27802 WAT        25.1590   29.8440   18.0910 O      27802 WAT       0.2021
  27803 WAT        25.1590   29.8440   18.3410 O      27803 WAT       0.2062
  27804 WAT        25.1590   29.8440   18.5910 O      27804 WAT       0.1520
  27805 WAT        25.1590   29.8440   18.8410 O      27805 WAT       0.0821
  27806 WAT        25.1590   29.8440   26.3410 O      27806 WAT       0.0521
  27807 WAT        25.1590   29.8440   26.5910 O      27807 WAT       0.0668
  27808 WAT        25.1590   29.8440   26.8410 O      27808 WAT       0.0759
  27809 WAT        25.1590   29.8440   27.0910 O      27809 WAT       0.0771
  27810 WAT        25.1590   29.8440   27.3410 O      27810 WAT       0.0700
  27811 WAT        25.1590   29.8440   27.5910 O      27811 WAT       0.0583
  27812 WAT        25.1590   29.8440   27.8410 O      27812 WAT       0.0478
  27813 WAT        25.1590   30.0940   17.5910 O      27813 WAT       0.0732
  27814 WAT        25.1590   30.0940   17.8410 O      27814 WAT       0.1425
  27815 WAT        25.1590   30.0940   18.0910 O      27815 WAT       0.1908
  27816 WAT        25.1590   30.0940   18.3410 O      27816 WAT       0.1782
  27817 WAT        25.1590   30.0940   18.5910 O      27817 WAT       0.1186
  27818 WAT        25.1590   30.0940   18.8410 O      27818 WAT       0.0571
  27819 WAT        25.1590   30.0940   26.0910 O      27819 WAT       0.0456
  27820 WAT        25.1590   30.0940   26.3410 O      27820 WAT       0.0677
  27821 WAT        25.1590   30.0940   26.5910 O      27821 WAT       0.0884
  27822 WAT        25.1590   30.0940   26.8410 O      27822 WAT       0.1023
  27823 WAT        25.1590   30.0940   27.0910 O      27823 WAT       0.1049
  27824 WAT        25.1590   30.0940   27.3410 O      27824 WAT       0.0949
  27825 WAT        25.1590   30.0940   27.5910 O      27825 WAT       0.0772
  27826 WAT        25.1590   30.0940   27.8410 O      27826 WAT       0.0596
  27827 WAT        25.1590   30.0940   28.0910 O      27827 WAT       0.0476
  27828 WAT        25.1590   30.3440   17.5910 O      27828 WAT       0.0673
  27829 WAT        25.1590   30.3440   17.8410 O      27829 WAT       0.1244
  27830 WAT        25.1590   30.3440   18.0910 O      27830 WAT       0.1571
  27831 WAT        25.1590   30.3440   18.3410 O      27831 WAT       0.1367
  27832 WAT        25.1590   30.3440   18.5910 O      27832 WAT       0.0833
  27833 WAT        25.1590   30.3440   26.0910 O      27833 WAT       0.0495
  27834 WAT        25.1590   30.3440   26.3410 O      27834 WAT       0.0752
  27835 WAT        25.1590   30.3440   26.5910 O      27835 WAT       0.1013
  27836 WAT        25.1590   30.3440   26.8410 O      27836 WAT       0.1201
  27837 WAT        25.1590   30.3440   27.0910 O      27837 WAT       0.1243
  27838 WAT        25.1590   30.3440   27.3410 O      27838 WAT       0.1119
  27839 WAT        25.1590   30.3440   27.5910 O      27839 WAT       0.0893
  27840 WAT        25.1590   30.3440   27.8410 O      27840 WAT       0.0659
  27841 WAT        25.1590   30.3440   28.0910 O      27841 WAT       0.0486
  27842 WAT        25.1590   30.5940   17.5910 O      27842 WAT       0.0535
  27843 WAT        25.1590   30.5940   17.8410 O      27843 WAT       0.0945
  27844 WAT        25.1590   30.5940   18.0910 O      27844 WAT       0.1137
  27845 WAT        25.1590   30.5940   18.3410 O      27845 WAT       0.0937
  27846 WAT        25.1590   30.5940   18.5910 O      27846 WAT       0.0532
  27847 WAT        25.1590   30.5940   26.0910 O      27847 WAT       0.0464
  27848 WAT        25.1590   30.5940   26.3410 O      27848 WAT       0.0723
  27849 WAT        25.1590   30.5940   26.5910 O      27849 WAT       0.1011
  27850 WAT        25.1590   30.5940   26.8410 O      27850 WAT       0.1232
  27851 WAT        25.1590   30.5940   27.0910 O      27851 WAT       0.1285
  27852 WAT        25.1590   30.5940   27.3410 O      27852 WAT       0.1150
  27853 WAT        25.1590   30.5940   27.5910 O      27853 WAT       0.0899
  27854 WAT        25.1590   30.5940   27.8410 O      27854 WAT       0.0639
  27855 WAT        25.1590   30.8440   17.8410 O      27855 WAT       0.0640
  27856 WAT        25.1590   30.8440   18.0910 O      27856 WAT       0.0744
  27857 WAT        25.1590   30.8440   18.3410 O      27857 WAT       0.0590
  27858 WAT        25.1590   30.8440   26.3410 O      27858 WAT       0.0618
  27859 WAT        25.1590   30.8440   26.5910 O      27859 WAT       0.0892
  27860 WAT        25.1590   30.8440   26.8410 O      27860 WAT       0.1110
  27861 WAT        25.1590   30.8440   27.0910 O      27861 WAT       0.1169
  27862 WAT        25.1590   30.8440   27.3410 O      27862 WAT       0.1043
  27863 WAT        25.1590   30.8440   27.5910 O      27863 WAT       0.0802
  27864 WAT        25.1590   30.8440   27.8410 O      27864 WAT       0.0554
  27865 WAT        25.1590   31.0940   18.0910 O      27865 WAT       0.0476
  27866 WAT        25.1590   31.0940   26.3410 O      27866 WAT       0.0488
  27867 WAT        25.1590   31.0940   26.5910 O      27867 WAT       0.0711
  27868 WAT        25.1590   31.0940   26.8410 O      27868 WAT       0.0897
  27869 WAT        25.1590   31.0940   27.0910 O      27869 WAT       0.0952
  27870 WAT        25.1590   31.0940   27.3410 O      27870 WAT       0.0853
  27871 WAT        25.1590   31.0940   27.5910 O      27871 WAT       0.0654
  27872 WAT        25.1590   31.3440   26.5910 O      27872 WAT       0.0537
  27873 WAT        25.1590   31.3440   26.8410 O      27873 WAT       0.0673
  27874 WAT        25.1590   31.3440   27.0910 O      27874 WAT       0.0717
  27875 WAT        25.1590   31.3440   27.3410 O      27875 WAT       0.0648
  27876 WAT        25.1590   31.3440   27.5910 O      27876 WAT       0.0507
  27877 WAT        25.1590   31.5940   26.8410 O      27877 WAT       0.0502
  27878 WAT        25.1590   31.5940   27.0910 O      27878 WAT       0.0529
  27879 WAT        25.1590   31.5940   27.3410 O      27879 WAT       0.0486
  27880 WAT        25.1590   31.8440   20.8410 O      27880 WAT       0.0499
  27881 WAT        25.1590   31.8440   21.0910 O      27881 WAT       0.0731
  27882 WAT        25.1590   31.8440   21.3410 O      27882 WAT       0.0885
  27883 WAT        25.1590   31.8440   21.5910 O      27883 WAT       0.0830
  27884 WAT        25.1590   31.8440   21.8410 O      27884 WAT       0.0584
  27885 WAT        25.1590   32.0940   20.5910 O      27885 WAT       0.0582
  27886 WAT        25.1590   32.0940   20.8410 O      27886 WAT       0.0875
  27887 WAT        25.1590   32.0940   21.0910 O      27887 WAT       0.1207
  27888 WAT        25.1590   32.0940   21.3410 O      27888 WAT       0.1400
  27889 WAT        25.1590   32.0940   21.5910 O      27889 WAT       0.1279
  27890 WAT        25.1590   32.0940   21.8410 O      27890 WAT       0.0889
  27891 WAT        25.1590   32.0940   22.0910 O      27891 WAT       0.0472
  27892 WAT        25.1590   32.3440   20.3410 O      27892 WAT       0.0634
  27893 WAT        25.1590   32.3440   20.5910 O      27893 WAT       0.0901
  27894 WAT        25.1590   32.3440   20.8410 O      27894 WAT       0.1245
  27895 WAT        25.1590   32.3440   21.0910 O      27895 WAT       0.1583
  27896 WAT        25.1590   32.3440   21.3410 O      27896 WAT       0.1722
  27897 WAT        25.1590   32.3440   21.5910 O      27897 WAT       0.1508
  27898 WAT        25.1590   32.3440   21.8410 O      27898 WAT       0.1026
  27899 WAT        25.1590   32.3440   22.0910 O      27899 WAT       0.0545
  27900 WAT        25.1590   32.5940   16.3410 O      27900 WAT       0.0466
  27901 WAT        25.1590   32.5940   19.8410 O      27901 WAT       0.0455
  27902 WAT        25.1590   32.5940   20.0910 O      27902 WAT       0.0632
  27903 WAT        25.1590   32.5940   20.3410 O      27903 WAT       0.0865
  27904 WAT        25.1590   32.5940   20.5910 O      27904 WAT       0.1145
  27905 WAT        25.1590   32.5940   20.8410 O      27905 WAT       0.1440
  27906 WAT        25.1590   32.5940   21.0910 O      27906 WAT       0.1658
  27907 WAT        25.1590   32.5940   21.3410 O      27907 WAT       0.1659
  27908 WAT        25.1590   32.5940   21.5910 O      27908 WAT       0.1370
  27909 WAT        25.1590   32.5940   21.8410 O      27909 WAT       0.0903
  27910 WAT        25.1590   32.5940   22.0910 O      27910 WAT       0.0482
  27911 WAT        25.1590   32.5940   24.3410 O      27911 WAT       0.0467
  27912 WAT        25.1590   32.5940   24.5910 O      27912 WAT       0.0454
  27913 WAT        25.1590   32.8440   11.8410 O      27913 WAT       0.0689
  27914 WAT        25.1590   32.8440   12.0910 O      27914 WAT       0.0986
  27915 WAT        25.1590   32.8440   12.3410 O      27915 WAT       0.0971
  27916 WAT        25.1590   32.8440   12.5910 O      27916 WAT       0.0658
  27917 WAT        25.1590   32.8440   16.0910 O      27917 WAT       0.0511
  27918 WAT        25.1590   32.8440   16.3410 O      27918 WAT       0.0567
  27919 WAT        25.1590   32.8440   16.5910 O      27919 WAT       0.0493
  27920 WAT        25.1590   32.8440   19.8410 O      27920 WAT       0.0538
  27921 WAT        25.1590   32.8440   20.0910 O      27921 WAT       0.0735
  27922 WAT        25.1590   32.8440   20.3410 O      27922 WAT       0.0961
  27923 WAT        25.1590   32.8440   20.5910 O      27923 WAT       0.1185
  27924 WAT        25.1590   32.8440   20.8410 O      27924 WAT       0.1349
  27925 WAT        25.1590   32.8440   21.0910 O      27925 WAT       0.1392
  27926 WAT        25.1590   32.8440   21.3410 O      27926 WAT       0.1263
  27927 WAT        25.1590   32.8440   21.5910 O      27927 WAT       0.0970
  27928 WAT        25.1590   32.8440   21.8410 O      27928 WAT       0.0616
  27929 WAT        25.1590   32.8440   23.5910 O      27929 WAT       0.0478
  27930 WAT        25.1590   32.8440   23.8410 O      27930 WAT       0.0568
  27931 WAT        25.1590   32.8440   24.0910 O      27931 WAT       0.0618
  27932 WAT        25.1590   32.8440   24.3410 O      27932 WAT       0.0616
  27933 WAT        25.1590   32.8440   24.5910 O      27933 WAT       0.0575
  27934 WAT        25.1590   32.8440   24.8410 O      27934 WAT       0.0521
  27935 WAT        25.1590   32.8440   25.0910 O      27935 WAT       0.0486
  27936 WAT        25.1590   32.8440   25.3410 O      27936 WAT       0.0478
  27937 WAT        25.1590   32.8440   25.5910 O      27937 WAT       0.0485
  27938 WAT        25.1590   32.8440   25.8410 O      27938 WAT       0.0491
  27939 WAT        25.1590   32.8440   26.0910 O      27939 WAT       0.0486
  27940 WAT        25.1590   32.8440   26.3410 O      27940 WAT       0.0465
  27941 WAT        25.1590   33.0940   11.5910 O      27941 WAT       0.0750
  27942 WAT        25.1590   33.0940   11.8410 O      27942 WAT       0.1431
  27943 WAT        25.1590   33.0940   12.0910 O      27943 WAT       0.2001
  27944 WAT        25.1590   33.0940   12.3410 O      27944 WAT       0.1988
  27945 WAT        25.1590   33.0940   12.5910 O      27945 WAT       0.1394
  27946 WAT        25.1590   33.0940   12.8410 O      27946 WAT       0.0699
  27947 WAT        25.1590   33.0940   15.8410 O      27947 WAT       0.0456
  27948 WAT        25.1590   33.0940   16.0910 O      27948 WAT       0.0595
  27949 WAT        25.1590   33.0940   16.3410 O      27949 WAT       0.0652
  27950 WAT        25.1590   33.0940   16.5910 O      27950 WAT       0.0554
  27951 WAT        25.1590   33.0940   19.8410 O      27951 WAT       0.0506
  27952 WAT        25.1590   33.0940   20.0910 O      27952 WAT       0.0679
  27953 WAT        25.1590   33.0940   20.3410 O      27953 WAT       0.0851
  27954 WAT        25.1590   33.0940   20.5910 O      27954 WAT       0.0980
  27955 WAT        25.1590   33.0940   20.8410 O      27955 WAT       0.1018
  27956 WAT        25.1590   33.0940   21.0910 O      27956 WAT       0.0943
  27957 WAT        25.1590   33.0940   21.3410 O      27957 WAT       0.0772
  27958 WAT        25.1590   33.0940   21.5910 O      27958 WAT       0.0548
  27959 WAT        25.1590   33.0940   23.3410 O      27959 WAT       0.0527
  27960 WAT        25.1590   33.0940   23.5910 O      27960 WAT       0.0666
  27961 WAT        25.1590   33.0940   23.8410 O      27961 WAT       0.0762
  27962 WAT        25.1590   33.0940   24.0910 O      27962 WAT       0.0783
  27963 WAT        25.1590   33.0940   24.3410 O      27963 WAT       0.0732
  27964 WAT        25.1590   33.0940   24.5910 O      27964 WAT       0.0645
  27965 WAT        25.1590   33.0940   24.8410 O      27965 WAT       0.0563
  27966 WAT        25.1590   33.0940   25.0910 O      27966 WAT       0.0508
  27967 WAT        25.1590   33.0940   25.3410 O      27967 WAT       0.0484
  27968 WAT        25.1590   33.0940   25.5910 O      27968 WAT       0.0477
  27969 WAT        25.1590   33.0940   25.8410 O      27969 WAT       0.0474
  27970 WAT        25.1590   33.0940   26.0910 O      27970 WAT       0.0459
  27971 WAT        25.1590   33.3440   11.3410 O      27971 WAT       0.0569
  27972 WAT        25.1590   33.3440   11.5910 O      27972 WAT       0.1208
  27973 WAT        25.1590   33.3440   11.8410 O      27973 WAT       0.2104
  27974 WAT        25.1590   33.3440   12.0910 O      27974 WAT       0.2845
  27975 WAT        25.1590   33.3440   12.3410 O      27975 WAT       0.2843
  27976 WAT        25.1590   33.3440   12.5910 O      27976 WAT       0.2066
  27977 WAT        25.1590   33.3440   12.8410 O      27977 WAT       0.1103
  27978 WAT        25.1590   33.3440   15.8410 O      27978 WAT       0.0531
  27979 WAT        25.1590   33.3440   16.0910 O      27979 WAT       0.0684
  27980 WAT        25.1590   33.3440   16.3410 O      27980 WAT       0.0722
  27981 WAT        25.1590   33.3440   16.5910 O      27981 WAT       0.0591
  27982 WAT        25.1590   33.3440   20.0910 O      27982 WAT       0.0494
  27983 WAT        25.1590   33.3440   20.3410 O      27983 WAT       0.0593
  27984 WAT        25.1590   33.3440   20.5910 O      27984 WAT       0.0642
  27985 WAT        25.1590   33.3440   20.8410 O      27985 WAT       0.0616
  27986 WAT        25.1590   33.3440   21.0910 O      27986 WAT       0.0521
  27987 WAT        25.1590   33.3440   23.0910 O      27987 WAT       0.0489
  27988 WAT        25.1590   33.3440   23.3410 O      27988 WAT       0.0666
  27989 WAT        25.1590   33.3440   23.5910 O      27989 WAT       0.0817
  27990 WAT        25.1590   33.3440   23.8410 O      27990 WAT       0.0890
  27991 WAT        25.1590   33.3440   24.0910 O      27991 WAT       0.0857
  27992 WAT        25.1590   33.3440   24.3410 O      27992 WAT       0.0745
  27993 WAT        25.1590   33.3440   24.5910 O      27993 WAT       0.0618
  27994 WAT        25.1590   33.3440   24.8410 O      27994 WAT       0.0519
  27995 WAT        25.1590   33.3440   25.0910 O      27995 WAT       0.0457
  27996 WAT        25.1590   33.5940   11.3410 O      27996 WAT       0.0785
  27997 WAT        25.1590   33.5940   11.5910 O      27997 WAT       0.1450
  27998 WAT        25.1590   33.5940   11.8410 O      27998 WAT       0.2257
  27999 WAT        25.1590   33.5940   12.0910 O      27999 WAT       0.2886
  28000 WAT        25.1590   33.5940   12.3410 O      28000 WAT       0.2874
  28001 WAT        25.1590   33.5940   12.5910 O      28001 WAT       0.2162
  28002 WAT        25.1590   33.5940   12.8410 O      28002 WAT       0.1228
  28003 WAT        25.1590   33.5940   13.0910 O      28003 WAT       0.0536
  28004 WAT        25.1590   33.5940   15.8410 O      28004 WAT       0.0627
  28005 WAT        25.1590   33.5940   16.0910 O      28005 WAT       0.0776
  28006 WAT        25.1590   33.5940   16.3410 O      28006 WAT       0.0775
  28007 WAT        25.1590   33.5940   16.5910 O      28007 WAT       0.0604
  28008 WAT        25.1590   33.5940   23.0910 O      28008 WAT       0.0566
  28009 WAT        25.1590   33.5940   23.3410 O      28009 WAT       0.0744
  28010 WAT        25.1590   33.5940   23.5910 O      28010 WAT       0.0869
  28011 WAT        25.1590   33.5940   23.8410 O      28011 WAT       0.0889
  28012 WAT        25.1590   33.5940   24.0910 O      28012 WAT       0.0794
  28013 WAT        25.1590   33.5940   24.3410 O      28013 WAT       0.0641
  28014 WAT        25.1590   33.5940   24.5910 O      28014 WAT       0.0501
  28015 WAT        25.1590   33.8440   11.3410 O      28015 WAT       0.0794
  28016 WAT        25.1590   33.8440   11.5910 O      28016 WAT       0.1315
  28017 WAT        25.1590   33.8440   11.8410 O      28017 WAT       0.1819
  28018 WAT        25.1590   33.8440   12.0910 O      28018 WAT       0.2146
  28019 WAT        25.1590   33.8440   12.3410 O      28019 WAT       0.2088
  28020 WAT        25.1590   33.8440   12.5910 O      28020 WAT       0.1610
  28021 WAT        25.1590   33.8440   12.8410 O      28021 WAT       0.0968
  28022 WAT        25.1590   33.8440   13.0910 O      28022 WAT       0.0457
  28023 WAT        25.1590   33.8440   15.5910 O      28023 WAT       0.0522
  28024 WAT        25.1590   33.8440   15.8410 O      28024 WAT       0.0710
  28025 WAT        25.1590   33.8440   16.0910 O      28025 WAT       0.0827
  28026 WAT        25.1590   33.8440   16.3410 O      28026 WAT       0.0772
  28027 WAT        25.1590   33.8440   16.5910 O      28027 WAT       0.0570
  28028 WAT        25.1590   33.8440   23.0910 O      28028 WAT       0.0593
  28029 WAT        25.1590   33.8440   23.3410 O      28029 WAT       0.0736
  28030 WAT        25.1590   33.8440   23.5910 O      28030 WAT       0.0803
  28031 WAT        25.1590   33.8440   23.8410 O      28031 WAT       0.0759
  28032 WAT        25.1590   33.8440   24.0910 O      28032 WAT       0.0625
  28033 WAT        25.1590   33.8440   24.3410 O      28033 WAT       0.0469
  28034 WAT        25.1590   34.0940   11.3410 O      28034 WAT       0.0580
  28035 WAT        25.1590   34.0940   11.5910 O      28035 WAT       0.0894
  28036 WAT        25.1590   34.0940   11.8410 O      28036 WAT       0.1120
  28037 WAT        25.1590   34.0940   12.0910 O      28037 WAT       0.1204
  28038 WAT        25.1590   34.0940   12.3410 O      28038 WAT       0.1114
  28039 WAT        25.1590   34.0940   12.5910 O      28039 WAT       0.0862
  28040 WAT        25.1590   34.0940   12.8410 O      28040 WAT       0.0540
  28041 WAT        25.1590   34.0940   15.5910 O      28041 WAT       0.0554
  28042 WAT        25.1590   34.0940   15.8410 O      28042 WAT       0.0715
  28043 WAT        25.1590   34.0940   16.0910 O      28043 WAT       0.0772
  28044 WAT        25.1590   34.0940   16.3410 O      28044 WAT       0.0668
  28045 WAT        25.1590   34.0940   16.5910 O      28045 WAT       0.0469
  28046 WAT        25.1590   34.0940   23.0910 O      28046 WAT       0.0565
  28047 WAT        25.1590   34.0940   23.3410 O      28047 WAT       0.0647
  28048 WAT        25.1590   34.0940   23.5910 O      28048 WAT       0.0649
  28049 WAT        25.1590   34.0940   23.8410 O      28049 WAT       0.0562
  28050 WAT        25.1590   34.3440   11.8410 O      28050 WAT       0.0524
  28051 WAT        25.1590   34.3440   12.0910 O      28051 WAT       0.0516
  28052 WAT        25.1590   34.3440   15.5910 O      28052 WAT       0.0513
  28053 WAT        25.1590   34.3440   15.8410 O      28053 WAT       0.0610
  28054 WAT        25.1590   34.3440   16.0910 O      28054 WAT       0.0603
  28055 WAT        25.1590   34.3440   16.3410 O      28055 WAT       0.0484
  28056 WAT        25.1590   34.3440   23.0910 O      28056 WAT       0.0497
  28057 WAT        25.1590   34.3440   23.3410 O      28057 WAT       0.0519
  28058 WAT        25.1590   34.3440   23.5910 O      28058 WAT       0.0471
  28059 WAT        25.4090    9.3440   21.3410 O      28059 WAT       0.0467
  28060 WAT        25.4090    9.3440   21.5910 O      28060 WAT       0.0492
  28061 WAT        25.4090    9.3440   21.8410 O      28061 WAT       0.0489
  28062 WAT        25.4090    9.3440   22.0910 O      28062 WAT       0.0459
  28063 WAT        25.4090    9.3440   24.3410 O      28063 WAT       0.0455
  28064 WAT        25.4090    9.3440   24.5910 O      28064 WAT       0.0458
  28065 WAT        25.4090    9.3440   24.8410 O      28065 WAT       0.0459
  28066 WAT        25.4090    9.3440   25.0910 O      28066 WAT       0.0453
  28067 WAT        25.4090    9.5940   21.3410 O      28067 WAT       0.0489
  28068 WAT        25.4090    9.5940   21.5910 O      28068 WAT       0.0519
  28069 WAT        25.4090    9.5940   21.8410 O      28069 WAT       0.0513
  28070 WAT        25.4090    9.5940   22.0910 O      28070 WAT       0.0471
  28071 WAT        25.4090    9.5940   24.8410 O      28071 WAT       0.0475
  28072 WAT        25.4090    9.5940   25.0910 O      28072 WAT       0.0500
  28073 WAT        25.4090    9.5940   25.3410 O      28073 WAT       0.0497
  28074 WAT        25.4090    9.5940   25.5910 O      28074 WAT       0.0458
  28075 WAT        25.4090    9.8440   21.3410 O      28075 WAT       0.0485
  28076 WAT        25.4090    9.8440   21.5910 O      28076 WAT       0.0512
  28077 WAT        25.4090    9.8440   21.8410 O      28077 WAT       0.0499
  28078 WAT        25.4090    9.8440   25.0910 O      28078 WAT       0.0475
  28079 WAT        25.4090    9.8440   25.3410 O      28079 WAT       0.0499
  28080 WAT        25.4090    9.8440   25.5910 O      28080 WAT       0.0473
  28081 WAT        25.4090   10.0940   21.3410 O      28081 WAT       0.0460
  28082 WAT        25.4090   10.0940   21.5910 O      28082 WAT       0.0476
  28083 WAT        25.4090   10.0940   21.8410 O      28083 WAT       0.0452
  28084 WAT        25.4090   11.3440   27.3410 O      28084 WAT       0.0479
  28085 WAT        25.4090   11.3440   27.5910 O      28085 WAT       0.0484
  28086 WAT        25.4090   11.5940   27.0910 O      28086 WAT       0.0543
  28087 WAT        25.4090   11.5940   27.3410 O      28087 WAT       0.0702
  28088 WAT        25.4090   11.5940   27.5910 O      28088 WAT       0.0716
  28089 WAT        25.4090   11.5940   27.8410 O      28089 WAT       0.0575
  28090 WAT        25.4090   11.8440   20.3410 O      28090 WAT       0.0454
  28091 WAT        25.4090   11.8440   20.5910 O      28091 WAT       0.0453
  28092 WAT        25.4090   11.8440   27.0910 O      28092 WAT       0.0705
  28093 WAT        25.4090   11.8440   27.3410 O      28093 WAT       0.0920
  28094 WAT        25.4090   11.8440   27.5910 O      28094 WAT       0.0940
  28095 WAT        25.4090   11.8440   27.8410 O      28095 WAT       0.0752
  28096 WAT        25.4090   11.8440   28.0910 O      28096 WAT       0.0468
  28097 WAT        25.4090   12.0940   20.3410 O      28097 WAT       0.0462
  28098 WAT        25.4090   12.0940   26.8410 O      28098 WAT       0.0479
  28099 WAT        25.4090   12.0940   27.0910 O      28099 WAT       0.0795
  28100 WAT        25.4090   12.0940   27.3410 O      28100 WAT       0.1027
  28101 WAT        25.4090   12.0940   27.5910 O      28101 WAT       0.1041
  28102 WAT        25.4090   12.0940   27.8410 O      28102 WAT       0.0829
  28103 WAT        25.4090   12.0940   28.0910 O      28103 WAT       0.0520
  28104 WAT        25.4090   12.3440   26.8410 O      28104 WAT       0.0481
  28105 WAT        25.4090   12.3440   27.0910 O      28105 WAT       0.0769
  28106 WAT        25.4090   12.3440   27.3410 O      28106 WAT       0.0965
  28107 WAT        25.4090   12.3440   27.5910 O      28107 WAT       0.0959
  28108 WAT        25.4090   12.3440   27.8410 O      28108 WAT       0.0758
  28109 WAT        25.4090   12.3440   28.0910 O      28109 WAT       0.0479
  28110 WAT        25.4090   12.5940   27.0910 O      28110 WAT       0.0642
  28111 WAT        25.4090   12.5940   27.3410 O      28111 WAT       0.0768
  28112 WAT        25.4090   12.5940   27.5910 O      28112 WAT       0.0739
  28113 WAT        25.4090   12.5940   27.8410 O      28113 WAT       0.0576
  28114 WAT        25.4090   12.8440   27.0910 O      28114 WAT       0.0470
  28115 WAT        25.4090   12.8440   27.3410 O      28115 WAT       0.0531
  28116 WAT        25.4090   12.8440   27.5910 O      28116 WAT       0.0491
  28117 WAT        25.4090   13.8440   12.8410 O      28117 WAT       0.0477
  28118 WAT        25.4090   13.8440   13.0910 O      28118 WAT       0.0472
  28119 WAT        25.4090   14.0940   12.3410 O      28119 WAT       0.0466
  28120 WAT        25.4090   14.0940   12.5910 O      28120 WAT       0.0621
  28121 WAT        25.4090   14.0940   12.8410 O      28121 WAT       0.0671
  28122 WAT        25.4090   14.0940   13.0910 O      28122 WAT       0.0585
  28123 WAT        25.4090   14.3440   12.0910 O      28123 WAT       0.0484
  28124 WAT        25.4090   14.3440   12.3410 O      28124 WAT       0.0719
  28125 WAT        25.4090   14.3440   12.5910 O      28125 WAT       0.0897
  28126 WAT        25.4090   14.3440   12.8410 O      28126 WAT       0.0886
  28127 WAT        25.4090   14.3440   13.0910 O      28127 WAT       0.0690
  28128 WAT        25.4090   14.5940   12.0910 O      28128 WAT       0.0670
  28129 WAT        25.4090   14.5940   12.3410 O      28129 WAT       0.0981
  28130 WAT        25.4090   14.5940   12.5910 O      28130 WAT       0.1169
  28131 WAT        25.4090   14.5940   12.8410 O      28131 WAT       0.1077
  28132 WAT        25.4090   14.5940   13.0910 O      28132 WAT       0.0763
  28133 WAT        25.4090   14.5940   28.5910 O      28133 WAT       0.0464
  28134 WAT        25.4090   14.5940   28.8410 O      28134 WAT       0.0489
  28135 WAT        25.4090   14.8440   11.8410 O      28135 WAT       0.0484
  28136 WAT        25.4090   14.8440   12.0910 O      28136 WAT       0.0800
  28137 WAT        25.4090   14.8440   12.3410 O      28137 WAT       0.1161
  28138 WAT        25.4090   14.8440   12.5910 O      28138 WAT       0.1343
  28139 WAT        25.4090   14.8440   12.8410 O      28139 WAT       0.1176
  28140 WAT        25.4090   14.8440   13.0910 O      28140 WAT       0.0772
  28141 WAT        25.4090   15.0940   11.8410 O      28141 WAT       0.0501
  28142 WAT        25.4090   15.0940   12.0910 O      28142 WAT       0.0827
  28143 WAT        25.4090   15.0940   12.3410 O      28143 WAT       0.1183
  28144 WAT        25.4090   15.0940   12.5910 O      28144 WAT       0.1335
  28145 WAT        25.4090   15.0940   12.8410 O      28145 WAT       0.1124
  28146 WAT        25.4090   15.0940   13.0910 O      28146 WAT       0.0693
  28147 WAT        25.4090   15.0940   18.5910 O      28147 WAT       0.0459
  28148 WAT        25.4090   15.0940   18.8410 O      28148 WAT       0.0482
  28149 WAT        25.4090   15.3440   11.8410 O      28149 WAT       0.0500
  28150 WAT        25.4090   15.3440   12.0910 O      28150 WAT       0.0770
  28151 WAT        25.4090   15.3440   12.3410 O      28151 WAT       0.1055
  28152 WAT        25.4090   15.3440   12.5910 O      28152 WAT       0.1148
  28153 WAT        25.4090   15.3440   12.8410 O      28153 WAT       0.0928
  28154 WAT        25.4090   15.3440   13.0910 O      28154 WAT       0.0541
  28155 WAT        25.4090   15.3440   18.8410 O      28155 WAT       0.0499
  28156 WAT        25.4090   15.3440   19.0910 O      28156 WAT       0.0469
  28157 WAT        25.4090   15.3440   21.5910 O      28157 WAT       0.0454
  28158 WAT        25.4090   15.3440   21.8410 O      28158 WAT       0.0471
  28159 WAT        25.4090   15.5940   11.8410 O      28159 WAT       0.0530
  28160 WAT        25.4090   15.5940   12.0910 O      28160 WAT       0.0693
  28161 WAT        25.4090   15.5940   12.3410 O      28161 WAT       0.0854
  28162 WAT        25.4090   15.5940   12.5910 O      28162 WAT       0.0869
  28163 WAT        25.4090   15.5940   12.8410 O      28163 WAT       0.0666
  28164 WAT        25.4090   15.5940   18.8410 O      28164 WAT       0.0500
  28165 WAT        25.4090   15.5940   19.0910 O      28165 WAT       0.0496
  28166 WAT        25.4090   15.5940   21.5910 O      28166 WAT       0.0565
  28167 WAT        25.4090   15.5940   21.8410 O      28167 WAT       0.0643
  28168 WAT        25.4090   15.5940   22.0910 O      28168 WAT       0.0625
  28169 WAT        25.4090   15.5940   22.3410 O      28169 WAT       0.0529
  28170 WAT        25.4090   15.5940   25.8410 O      28170 WAT       0.0517
  28171 WAT        25.4090   15.5940   26.0910 O      28171 WAT       0.0661
  28172 WAT        25.4090   15.5940   26.3410 O      28172 WAT       0.0680
  28173 WAT        25.4090   15.5940   26.5910 O      28173 WAT       0.0548
  28174 WAT        25.4090   15.8440    9.8410 O      28174 WAT       0.0555
  28175 WAT        25.4090   15.8440   10.0910 O      28175 WAT       0.0665
  28176 WAT        25.4090   15.8440   10.3410 O      28176 WAT       0.0705
  28177 WAT        25.4090   15.8440   10.5910 O      28177 WAT       0.0674
  28178 WAT        25.4090   15.8440   10.8410 O      28178 WAT       0.0615
  28179 WAT        25.4090   15.8440   11.0910 O      28179 WAT       0.0567
  28180 WAT        25.4090   15.8440   11.3410 O      28180 WAT       0.0544
  28181 WAT        25.4090   15.8440   11.5910 O      28181 WAT       0.0549
  28182 WAT        25.4090   15.8440   11.8410 O      28182 WAT       0.0578
  28183 WAT        25.4090   15.8440   12.0910 O      28183 WAT       0.0624
  28184 WAT        25.4090   15.8440   12.3410 O      28184 WAT       0.0650
  28185 WAT        25.4090   15.8440   12.5910 O      28185 WAT       0.0589
  28186 WAT        25.4090   15.8440   18.8410 O      28186 WAT       0.0490
  28187 WAT        25.4090   15.8440   19.0910 O      28187 WAT       0.0526
  28188 WAT        25.4090   15.8440   19.3410 O      28188 WAT       0.0464
  28189 WAT        25.4090   15.8440   21.3410 O      28189 WAT       0.0461
  28190 WAT        25.4090   15.8440   21.5910 O      28190 WAT       0.0656
  28191 WAT        25.4090   15.8440   21.8410 O      28191 WAT       0.0790
  28192 WAT        25.4090   15.8440   22.0910 O      28192 WAT       0.0815
  28193 WAT        25.4090   15.8440   22.3410 O      28193 WAT       0.0736
  28194 WAT        25.4090   15.8440   22.5910 O      28194 WAT       0.0596
  28195 WAT        25.4090   15.8440   25.5910 O      28195 WAT       0.0594
  28196 WAT        25.4090   15.8440   25.8410 O      28196 WAT       0.0913
  28197 WAT        25.4090   15.8440   26.0910 O      28197 WAT       0.1221
  28198 WAT        25.4090   15.8440   26.3410 O      28198 WAT       0.1321
  28199 WAT        25.4090   15.8440   26.5910 O      28199 WAT       0.1128
  28200 WAT        25.4090   15.8440   26.8410 O      28200 WAT       0.0763
  28201 WAT        25.4090   16.0940    9.3410 O      28201 WAT       0.0542
  28202 WAT        25.4090   16.0940    9.5910 O      28202 WAT       0.0728
  28203 WAT        25.4090   16.0940    9.8410 O      28203 WAT       0.0886
  28204 WAT        25.4090   16.0940   10.0910 O      28204 WAT       0.0968
  28205 WAT        25.4090   16.0940   10.3410 O      28205 WAT       0.0945
  28206 WAT        25.4090   16.0940   10.5910 O      28206 WAT       0.0836
  28207 WAT        25.4090   16.0940   10.8410 O      28207 WAT       0.0710
  28208 WAT        25.4090   16.0940   11.0910 O      28208 WAT       0.0621
  28209 WAT        25.4090   16.0940   11.3410 O      28209 WAT       0.0576
  28210 WAT        25.4090   16.0940   11.5910 O      28210 WAT       0.0560
  28211 WAT        25.4090   16.0940   11.8410 O      28211 WAT       0.0550
  28212 WAT        25.4090   16.0940   12.0910 O      28212 WAT       0.0521
  28213 WAT        25.4090   16.0940   12.3410 O      28213 WAT       0.0458
  28214 WAT        25.4090   16.0940   18.8410 O      28214 WAT       0.0470
  28215 WAT        25.4090   16.0940   19.0910 O      28215 WAT       0.0556
  28216 WAT        25.4090   16.0940   19.3410 O      28216 WAT       0.0534
  28217 WAT        25.4090   16.0940   21.3410 O      28217 WAT       0.0493
  28218 WAT        25.4090   16.0940   21.5910 O      28218 WAT       0.0732
  28219 WAT        25.4090   16.0940   21.8410 O      28219 WAT       0.0918
  28220 WAT        25.4090   16.0940   22.0910 O      28220 WAT       0.0988
  28221 WAT        25.4090   16.0940   22.3410 O      28221 WAT       0.0930
  28222 WAT        25.4090   16.0940   22.5910 O      28222 WAT       0.0786
  28223 WAT        25.4090   16.0940   22.8410 O      28223 WAT       0.0607
  28224 WAT        25.4090   16.0940   25.3410 O      28224 WAT       0.0474
  28225 WAT        25.4090   16.0940   25.5910 O      28225 WAT       0.0742
  28226 WAT        25.4090   16.0940   25.8410 O      28226 WAT       0.1170
  28227 WAT        25.4090   16.0940   26.0910 O      28227 WAT       0.1633
  28228 WAT        25.4090   16.0940   26.3410 O      28228 WAT       0.1875
  28229 WAT        25.4090   16.0940   26.5910 O      28229 WAT       0.1716
  28230 WAT        25.4090   16.0940   26.8410 O      28230 WAT       0.1250
  28231 WAT        25.4090   16.0940   27.0910 O      28231 WAT       0.0747
  28232 WAT        25.4090   16.3440    9.0910 O      28232 WAT       0.0580
  28233 WAT        25.4090   16.3440    9.3410 O      28233 WAT       0.0772
  28234 WAT        25.4090   16.3440    9.5910 O      28234 WAT       0.0918
  28235 WAT        25.4090   16.3440    9.8410 O      28235 WAT       0.0989
  28236 WAT        25.4090   16.3440   10.0910 O      28236 WAT       0.0971
  28237 WAT        25.4090   16.3440   10.3410 O      28237 WAT       0.0863
  28238 WAT        25.4090   16.3440   10.5910 O      28238 WAT       0.0702
  28239 WAT        25.4090   16.3440   10.8410 O      28239 WAT       0.0554
  28240 WAT        25.4090   16.3440   11.0910 O      28240 WAT       0.0460
  28241 WAT        25.4090   16.3440   19.0910 O      28241 WAT       0.0568
  28242 WAT        25.4090   16.3440   19.3410 O      28242 WAT       0.0597
  28243 WAT        25.4090   16.3440   19.5910 O      28243 WAT       0.0517
  28244 WAT        25.4090   16.3440   21.3410 O      28244 WAT       0.0516
  28245 WAT        25.4090   16.3440   21.5910 O      28245 WAT       0.0794
  28246 WAT        25.4090   16.3440   21.8410 O      28246 WAT       0.1033
  28247 WAT        25.4090   16.3440   22.0910 O      28247 WAT       0.1143
  28248 WAT        25.4090   16.3440   22.3410 O      28248 WAT       0.1101
  28249 WAT        25.4090   16.3440   22.5910 O      28249 WAT       0.0947
  28250 WAT        25.4090   16.3440   22.8410 O      28250 WAT       0.0741
  28251 WAT        25.4090   16.3440   23.0910 O      28251 WAT       0.0541
  28252 WAT        25.4090   16.3440   25.5910 O      28252 WAT       0.0661
  28253 WAT        25.4090   16.3440   25.8410 O      28253 WAT       0.1064
  28254 WAT        25.4090   16.3440   26.0910 O      28254 WAT       0.1566
  28255 WAT        25.4090   16.3440   26.3410 O      28255 WAT       0.1935
  28256 WAT        25.4090   16.3440   26.5910 O      28256 WAT       0.1930
  28257 WAT        25.4090   16.3440   26.8410 O      28257 WAT       0.1536
  28258 WAT        25.4090   16.3440   27.0910 O      28258 WAT       0.0994
  28259 WAT        25.4090   16.3440   27.3410 O      28259 WAT       0.0564
  28260 WAT        25.4090   16.5940    8.8410 O      28260 WAT       0.0520
  28261 WAT        25.4090   16.5940    9.0910 O      28261 WAT       0.0687
  28262 WAT        25.4090   16.5940    9.3410 O      28262 WAT       0.0792
  28263 WAT        25.4090   16.5940    9.5910 O      28263 WAT       0.0811
  28264 WAT        25.4090   16.5940    9.8410 O      28264 WAT       0.0760
  28265 WAT        25.4090   16.5940   10.0910 O      28265 WAT       0.0660
  28266 WAT        25.4090   16.5940   10.3410 O      28266 WAT       0.0529
  28267 WAT        25.4090   16.5940   19.0910 O      28267 WAT       0.0541
  28268 WAT        25.4090   16.5940   19.3410 O      28268 WAT       0.0622
  28269 WAT        25.4090   16.5940   19.5910 O      28269 WAT       0.0590
  28270 WAT        25.4090   16.5940   19.8410 O      28270 WAT       0.0482
  28271 WAT        25.4090   16.5940   21.3410 O      28271 WAT       0.0533
  28272 WAT        25.4090   16.5940   21.5910 O      28272 WAT       0.0834
  28273 WAT        25.4090   16.5940   21.8410 O      28273 WAT       0.1114
  28274 WAT        25.4090   16.5940   22.0910 O      28274 WAT       0.1253
  28275 WAT        25.4090   16.5940   22.3410 O      28275 WAT       0.1214
  28276 WAT        25.4090   16.5940   22.5910 O      28276 WAT       0.1041
  28277 WAT        25.4090   16.5940   22.8410 O      28277 WAT       0.0810
  28278 WAT        25.4090   16.5940   23.0910 O      28278 WAT       0.0584
  28279 WAT        25.4090   16.5940   25.8410 O      28279 WAT       0.0699
  28280 WAT        25.4090   16.5940   26.0910 O      28280 WAT       0.1100
  28281 WAT        25.4090   16.5940   26.3410 O      28281 WAT       0.1489
  28282 WAT        25.4090   16.5940   26.5910 O      28282 WAT       0.1646
  28283 WAT        25.4090   16.5940   26.8410 O      28283 WAT       0.1448
  28284 WAT        25.4090   16.5940   27.0910 O      28284 WAT       0.1018
  28285 WAT        25.4090   16.5940   27.3410 O      28285 WAT       0.0606
  28286 WAT        25.4090   16.8440    8.8410 O      28286 WAT       0.0540
  28287 WAT        25.4090   16.8440    9.0910 O      28287 WAT       0.0602
  28288 WAT        25.4090   16.8440    9.3410 O      28288 WAT       0.0581
  28289 WAT        25.4090   16.8440    9.5910 O      28289 WAT       0.0499
  28290 WAT        25.4090   16.8440   19.0910 O      28290 WAT       0.0475
  28291 WAT        25.4090   16.8440   19.3410 O      28291 WAT       0.0598
  28292 WAT        25.4090   16.8440   19.5910 O      28292 WAT       0.0626
  28293 WAT        25.4090   16.8440   19.8410 O      28293 WAT       0.0568
  28294 WAT        25.4090   16.8440   20.0910 O      28294 WAT       0.0472
  28295 WAT        25.4090   16.8440   21.3410 O      28295 WAT       0.0535
  28296 WAT        25.4090   16.8440   21.5910 O      28296 WAT       0.0822
  28297 WAT        25.4090   16.8440   21.8410 O      28297 WAT       0.1108
  28298 WAT        25.4090   16.8440   22.0910 O      28298 WAT       0.1254
  28299 WAT        25.4090   16.8440   22.3410 O      28299 WAT       0.1206
  28300 WAT        25.4090   16.8440   22.5910 O      28300 WAT       0.1017
  28301 WAT        25.4090   16.8440   22.8410 O      28301 WAT       0.0775
  28302 WAT        25.4090   16.8440   23.0910 O      28302 WAT       0.0544
  28303 WAT        25.4090   16.8440   26.0910 O      28303 WAT       0.0592
  28304 WAT        25.4090   16.8440   26.3410 O      28304 WAT       0.0895
  28305 WAT        25.4090   16.8440   26.5910 O      28305 WAT       0.1108
  28306 WAT        25.4090   16.8440   26.8410 O      28306 WAT       0.1080
  28307 WAT        25.4090   16.8440   27.0910 O      28307 WAT       0.0821
  28308 WAT        25.4090   16.8440   27.3410 O      28308 WAT       0.0508
  28309 WAT        25.4090   17.0940   19.3410 O      28309 WAT       0.0535
  28310 WAT        25.4090   17.0940   19.5910 O      28310 WAT       0.0608
  28311 WAT        25.4090   17.0940   19.8410 O      28311 WAT       0.0605
  28312 WAT        25.4090   17.0940   20.0910 O      28312 WAT       0.0550
  28313 WAT        25.4090   17.0940   20.3410 O      28313 WAT       0.0476
  28314 WAT        25.4090   17.0940   21.3410 O      28314 WAT       0.0501
  28315 WAT        25.4090   17.0940   21.5910 O      28315 WAT       0.0727
  28316 WAT        25.4090   17.0940   21.8410 O      28316 WAT       0.0968
  28317 WAT        25.4090   17.0940   22.0910 O      28317 WAT       0.1092
  28318 WAT        25.4090   17.0940   22.3410 O      28318 WAT       0.1037
  28319 WAT        25.4090   17.0940   22.5910 O      28319 WAT       0.0852
  28320 WAT        25.4090   17.0940   22.8410 O      28320 WAT       0.0628
  28321 WAT        25.4090   17.0940   26.5910 O      28321 WAT       0.0617
  28322 WAT        25.4090   17.0940   26.8410 O      28322 WAT       0.0659
  28323 WAT        25.4090   17.0940   27.0910 O      28323 WAT       0.0535
  28324 WAT        25.4090   17.3440   19.3410 O      28324 WAT       0.0461
  28325 WAT        25.4090   17.3440   19.5910 O      28325 WAT       0.0543
  28326 WAT        25.4090   17.3440   19.8410 O      28326 WAT       0.0570
  28327 WAT        25.4090   17.3440   20.0910 O      28327 WAT       0.0554
  28328 WAT        25.4090   17.3440   20.3410 O      28328 WAT       0.0512
  28329 WAT        25.4090   17.3440   20.5910 O      28329 WAT       0.0452
  28330 WAT        25.4090   17.3440   21.5910 O      28330 WAT       0.0561
  28331 WAT        25.4090   17.3440   21.8410 O      28331 WAT       0.0718
  28332 WAT        25.4090   17.3440   22.0910 O      28332 WAT       0.0801
  28333 WAT        25.4090   17.3440   22.3410 O      28333 WAT       0.0750
  28334 WAT        25.4090   17.3440   22.5910 O      28334 WAT       0.0599
  28335 WAT        25.4090   17.5940   19.5910 O      28335 WAT       0.0467
  28336 WAT        25.4090   17.5940   19.8410 O      28336 WAT       0.0482
  28337 WAT        25.4090   17.5940   20.0910 O      28337 WAT       0.0478
  28338 WAT        25.4090   17.5940   20.3410 O      28338 WAT       0.0462
  28339 WAT        25.4090   17.5940   21.8410 O      28339 WAT       0.0455
  28340 WAT        25.4090   17.5940   22.0910 O      28340 WAT       0.0492
  28341 WAT        25.4090   17.5940   22.3410 O      28341 WAT       0.0451
  28342 WAT        25.4090   18.0940   19.0910 O      28342 WAT       0.0478
  28343 WAT        25.4090   18.0940   19.3410 O      28343 WAT       0.0494
  28344 WAT        25.4090   18.3440   18.8410 O      28344 WAT       0.0530
  28345 WAT        25.4090   18.3440   19.0910 O      28345 WAT       0.0620
  28346 WAT        25.4090   18.3440   19.3410 O      28346 WAT       0.0586
  28347 WAT        25.4090   18.5940   18.5910 O      28347 WAT       0.0607
  28348 WAT        25.4090   18.5940   18.8410 O      28348 WAT       0.0769
  28349 WAT        25.4090   18.5940   19.0910 O      28349 WAT       0.0801
  28350 WAT        25.4090   18.5940   19.3410 O      28350 WAT       0.0683
  28351 WAT        25.4090   18.5940   19.5910 O      28351 WAT       0.0472
  28352 WAT        25.4090   18.5940   26.5910 O      28352 WAT       0.0587
  28353 WAT        25.4090   18.5940   26.8410 O      28353 WAT       0.0971
  28354 WAT        25.4090   18.5940   27.0910 O      28354 WAT       0.1070
  28355 WAT        25.4090   18.5940   27.3410 O      28355 WAT       0.0777
  28356 WAT        25.4090   18.8440    6.0910 O      28356 WAT       0.0487
  28357 WAT        25.4090   18.8440    6.3410 O      28357 WAT       0.0526
  28358 WAT        25.4090   18.8440   18.3410 O      28358 WAT       0.0716
  28359 WAT        25.4090   18.8440   18.5910 O      28359 WAT       0.0981
  28360 WAT        25.4090   18.8440   18.8410 O      28360 WAT       0.1098
  28361 WAT        25.4090   18.8440   19.0910 O      28361 WAT       0.1011
  28362 WAT        25.4090   18.8440   19.3410 O      28362 WAT       0.0763
  28363 WAT        25.4090   18.8440   19.5910 O      28363 WAT       0.0467
  28364 WAT        25.4090   18.8440   26.3410 O      28364 WAT       0.0536
  28365 WAT        25.4090   18.8440   26.5910 O      28365 WAT       0.1326
  28366 WAT        25.4090   18.8440   26.8410 O      28366 WAT       0.2168
  28367 WAT        25.4090   18.8440   27.0910 O      28367 WAT       0.2323
  28368 WAT        25.4090   18.8440   27.3410 O      28368 WAT       0.1629
  28369 WAT        25.4090   18.8440   27.5910 O      28369 WAT       0.0749
  28370 WAT        25.4090   19.0940    3.3410 O      28370 WAT       0.0481
  28371 WAT        25.4090   19.0940    3.5910 O      28371 WAT       0.0490
  28372 WAT        25.4090   19.0940    5.5910 O      28372 WAT       0.0497
  28373 WAT        25.4090   19.0940    5.8410 O      28373 WAT       0.0772
  28374 WAT        25.4090   19.0940    6.0910 O      28374 WAT       0.0986
  28375 WAT        25.4090   19.0940    6.3410 O      28375 WAT       0.0969
  28376 WAT        25.4090   19.0940    6.5910 O      28376 WAT       0.0699
  28377 WAT        25.4090   19.0940   18.0910 O      28377 WAT       0.0761
  28378 WAT        25.4090   19.0940   18.3410 O      28378 WAT       0.1171
  28379 WAT        25.4090   19.0940   18.5910 O      28379 WAT       0.1457
  28380 WAT        25.4090   19.0940   18.8410 O      28380 WAT       0.1473
  28381 WAT        25.4090   19.0940   19.0910 O      28381 WAT       0.1215
  28382 WAT        25.4090   19.0940   19.3410 O      28382 WAT       0.0811
  28383 WAT        25.4090   19.0940   26.3410 O      28383 WAT       0.0943
  28384 WAT        25.4090   19.0940   26.5910 O      28384 WAT       0.2312
  28385 WAT        25.4090   19.0940   26.8410 O      28385 WAT       0.3703
  28386 WAT        25.4090   19.0940   27.0910 O      28386 WAT       0.3854
  28387 WAT        25.4090   19.0940   27.3410 O      28387 WAT       0.2610
  28388 WAT        25.4090   19.0940   27.5910 O      28388 WAT       0.1159
  28389 WAT        25.4090   19.3440    3.3410 O      28389 WAT       0.0535
  28390 WAT        25.4090   19.3440    3.5910 O      28390 WAT       0.0548
  28391 WAT        25.4090   19.3440    3.8410 O      28391 WAT       0.0475
  28392 WAT        25.4090   19.3440    5.3410 O      28392 WAT       0.0558
  28393 WAT        25.4090   19.3440    5.5910 O      28393 WAT       0.0940
  28394 WAT        25.4090   19.3440    5.8410 O      28394 WAT       0.1369
  28395 WAT        25.4090   19.3440    6.0910 O      28395 WAT       0.1595
  28396 WAT        25.4090   19.3440    6.3410 O      28396 WAT       0.1414
  28397 WAT        25.4090   19.3440    6.5910 O      28397 WAT       0.0918
  28398 WAT        25.4090   19.3440   17.8410 O      28398 WAT       0.0653
  28399 WAT        25.4090   19.3440   18.0910 O      28399 WAT       0.1159
  28400 WAT        25.4090   19.3440   18.3410 O      28400 WAT       0.1654
  28401 WAT        25.4090   19.3440   18.5910 O      28401 WAT       0.1913
  28402 WAT        25.4090   19.3440   18.8410 O      28402 WAT       0.1793
  28403 WAT        25.4090   19.3440   19.0910 O      28403 WAT       0.1355
  28404 WAT        25.4090   19.3440   19.3410 O      28404 WAT       0.0813
  28405 WAT        25.4090   19.3440   26.3410 O      28405 WAT       0.1208
  28406 WAT        25.4090   19.3440   26.5910 O      28406 WAT       0.2932
  28407 WAT        25.4090   19.3440   26.8410 O      28407 WAT       0.4603
  28408 WAT        25.4090   19.3440   27.0910 O      28408 WAT       0.4671
  28409 WAT        25.4090   19.3440   27.3410 O      28409 WAT       0.3074
  28410 WAT        25.4090   19.3440   27.5910 O      28410 WAT       0.1325
  28411 WAT        25.4090   19.5940    3.3410 O      28411 WAT       0.0515
  28412 WAT        25.4090   19.5940    3.5910 O      28412 WAT       0.0524
  28413 WAT        25.4090   19.5940    3.8410 O      28413 WAT       0.0451
  28414 WAT        25.4090   19.5940    5.0910 O      28414 WAT       0.0478
  28415 WAT        25.4090   19.5940    5.3410 O      28415 WAT       0.0849
  28416 WAT        25.4090   19.5940    5.5910 O      28416 WAT       0.1379
  28417 WAT        25.4090   19.5940    5.8410 O      28417 WAT       0.1848
  28418 WAT        25.4090   19.5940    6.0910 O      28418 WAT       0.1937
  28419 WAT        25.4090   19.5940    6.3410 O      28419 WAT       0.1534
  28420 WAT        25.4090   19.5940    6.5910 O      28420 WAT       0.0890
  28421 WAT        25.4090   19.5940   17.8410 O      28421 WAT       0.0869
  28422 WAT        25.4090   19.5940   18.0910 O      28422 WAT       0.1469
  28423 WAT        25.4090   19.5940   18.3410 O      28423 WAT       0.1992
  28424 WAT        25.4090   19.5940   18.5910 O      28424 WAT       0.2189
  28425 WAT        25.4090   19.5940   18.8410 O      28425 WAT       0.1943
  28426 WAT        25.4090   19.5940   19.0910 O      28426 WAT       0.1375
  28427 WAT        25.4090   19.5940   19.3410 O      28427 WAT       0.0758
  28428 WAT        25.4090   19.5940   26.3410 O      28428 WAT       0.1088
  28429 WAT        25.4090   19.5940   26.5910 O      28429 WAT       0.2621
  28430 WAT        25.4090   19.5940   26.8410 O      28430 WAT       0.4054
  28431 WAT        25.4090   19.5940   27.0910 O      28431 WAT       0.4042
  28432 WAT        25.4090   19.5940   27.3410 O      28432 WAT       0.2611
  28433 WAT        25.4090   19.5940   27.5910 O      28433 WAT       0.1105
  28434 WAT        25.4090   19.8440    5.0910 O      28434 WAT       0.0555
  28435 WAT        25.4090   19.8440    5.3410 O      28435 WAT       0.0993
  28436 WAT        25.4090   19.8440    5.5910 O      28436 WAT       0.1518
  28437 WAT        25.4090   19.8440    5.8410 O      28437 WAT       0.1842
  28438 WAT        25.4090   19.8440    6.0910 O      28438 WAT       0.1715
  28439 WAT        25.4090   19.8440    6.3410 O      28439 WAT       0.1199
  28440 WAT        25.4090   19.8440    6.5910 O      28440 WAT       0.0613
  28441 WAT        25.4090   19.8440   17.8410 O      28441 WAT       0.0935
  28442 WAT        25.4090   19.8440   18.0910 O      28442 WAT       0.1548
  28443 WAT        25.4090   19.8440   18.3410 O      28443 WAT       0.2048
  28444 WAT        25.4090   19.8440   18.5910 O      28444 WAT       0.2185
  28445 WAT        25.4090   19.8440   18.8410 O      28445 WAT       0.1871
  28446 WAT        25.4090   19.8440   19.0910 O      28446 WAT       0.1262
  28447 WAT        25.4090   19.8440   19.3410 O      28447 WAT       0.0652
  28448 WAT        25.4090   19.8440   26.3410 O      28448 WAT       0.0675
  28449 WAT        25.4090   19.8440   26.5910 O      28449 WAT       0.1629
  28450 WAT        25.4090   19.8440   26.8410 O      28450 WAT       0.2510
  28451 WAT        25.4090   19.8440   27.0910 O      28451 WAT       0.2493
  28452 WAT        25.4090   19.8440   27.3410 O      28452 WAT       0.1611
  28453 WAT        25.4090   19.8440   27.5910 O      28453 WAT       0.0684
  28454 WAT        25.4090   20.0940    5.0910 O      28454 WAT       0.0521
  28455 WAT        25.4090   20.0940    5.3410 O      28455 WAT       0.0885
  28456 WAT        25.4090   20.0940    5.5910 O      28456 WAT       0.1237
  28457 WAT        25.4090   20.0940    5.8410 O      28457 WAT       0.1340
  28458 WAT        25.4090   20.0940    6.0910 O      28458 WAT       0.1096
  28459 WAT        25.4090   20.0940    6.3410 O      28459 WAT       0.0666
  28460 WAT        25.4090   20.0940   17.8410 O      28460 WAT       0.0811
  28461 WAT        25.4090   20.0940   18.0910 O      28461 WAT       0.1355
  28462 WAT        25.4090   20.0940   18.3410 O      28462 WAT       0.1798
  28463 WAT        25.4090   20.0940   18.5910 O      28463 WAT       0.1906
  28464 WAT        25.4090   20.0940   18.8410 O      28464 WAT       0.1602
  28465 WAT        25.4090   20.0940   19.0910 O      28465 WAT       0.1047
  28466 WAT        25.4090   20.0940   19.3410 O      28466 WAT       0.0517
  28467 WAT        25.4090   20.0940   26.5910 O      28467 WAT       0.0713
  28468 WAT        25.4090   20.0940   26.8410 O      28468 WAT       0.1126
  28469 WAT        25.4090   20.0940   27.0910 O      28469 WAT       0.1157
  28470 WAT        25.4090   20.0940   27.3410 O      28470 WAT       0.0787
  28471 WAT        25.4090   20.3440    5.3410 O      28471 WAT       0.0629
  28472 WAT        25.4090   20.3440    5.5910 O      28472 WAT       0.0761
  28473 WAT        25.4090   20.3440    5.8410 O      28473 WAT       0.0717
  28474 WAT        25.4090   20.3440    6.0910 O      28474 WAT       0.0505
  28475 WAT        25.4090   20.3440   17.8410 O      28475 WAT       0.0560
  28476 WAT        25.4090   20.3440   18.0910 O      28476 WAT       0.0974
  28477 WAT        25.4090   20.3440   18.3410 O      28477 WAT       0.1335
  28478 WAT        25.4090   20.3440   18.5910 O      28478 WAT       0.1442
  28479 WAT        25.4090   20.3440   18.8410 O      28479 WAT       0.1216
  28480 WAT        25.4090   20.3440   19.0910 O      28480 WAT       0.0788
  28481 WAT        25.4090   20.3440   27.0910 O      28481 WAT       0.0506
  28482 WAT        25.4090   20.5940   18.0910 O      28482 WAT       0.0569
  28483 WAT        25.4090   20.5940   18.3410 O      28483 WAT       0.0830
  28484 WAT        25.4090   20.5940   18.5910 O      28484 WAT       0.0941
  28485 WAT        25.4090   20.5940   18.8410 O      28485 WAT       0.0822
  28486 WAT        25.4090   20.5940   19.0910 O      28486 WAT       0.0549
  28487 WAT        25.4090   20.8440    3.5910 O      28487 WAT       0.0496
  28488 WAT        25.4090   20.8440    3.8410 O      28488 WAT       0.0618
  28489 WAT        25.4090   20.8440    4.0910 O      28489 WAT       0.0667
  28490 WAT        25.4090   20.8440    4.3410 O      28490 WAT       0.0612
  28491 WAT        25.4090   20.8440    4.5910 O      28491 WAT       0.0500
  28492 WAT        25.4090   20.8440   18.5910 O      28492 WAT       0.0543
  28493 WAT        25.4090   20.8440   18.8410 O      28493 WAT       0.0519
  28494 WAT        25.4090   21.0940    3.0910 O      28494 WAT       0.0478
  28495 WAT        25.4090   21.0940    3.3410 O      28495 WAT       0.0721
  28496 WAT        25.4090   21.0940    3.5910 O      28496 WAT       0.0953
  28497 WAT        25.4090   21.0940    3.8410 O      28497 WAT       0.1080
  28498 WAT        25.4090   21.0940    4.0910 O      28498 WAT       0.1031
  28499 WAT        25.4090   21.0940    4.3410 O      28499 WAT       0.0823
  28500 WAT        25.4090   21.0940    4.5910 O      28500 WAT       0.0566
  28501 WAT        25.4090   21.3440    2.8410 O      28501 WAT       0.0543
  28502 WAT        25.4090   21.3440    3.0910 O      28502 WAT       0.0933
  28503 WAT        25.4090   21.3440    3.3410 O      28503 WAT       0.1324
  28504 WAT        25.4090   21.3440    3.5910 O      28504 WAT       0.1531
  28505 WAT        25.4090   21.3440    3.8410 O      28505 WAT       0.1467
  28506 WAT        25.4090   21.3440    4.0910 O      28506 WAT       0.1176
  28507 WAT        25.4090   21.3440    4.3410 O      28507 WAT       0.0791
  28508 WAT        25.4090   21.3440    4.5910 O      28508 WAT       0.0454
  28509 WAT        25.4090   21.5940    2.5910 O      28509 WAT       0.0470
  28510 WAT        25.4090   21.5940    2.8410 O      28510 WAT       0.0972
  28511 WAT        25.4090   21.5940    3.0910 O      28511 WAT       0.1591
  28512 WAT        25.4090   21.5940    3.3410 O      28512 WAT       0.2000
  28513 WAT        25.4090   21.5940    3.5910 O      28513 WAT       0.1953
  28514 WAT        25.4090   21.5940    3.8410 O      28514 WAT       0.1529
  28515 WAT        25.4090   21.5940    4.0910 O      28515 WAT       0.0992
  28516 WAT        25.4090   21.5940    4.3410 O      28516 WAT       0.0544
  28517 WAT        25.4090   21.5940   27.5910 O      28517 WAT       0.0512
  28518 WAT        25.4090   21.5940   27.8410 O      28518 WAT       0.0505
  28519 WAT        25.4090   21.8440    2.5910 O      28519 WAT       0.0725
  28520 WAT        25.4090   21.8440    2.8410 O      28520 WAT       0.1471
  28521 WAT        25.4090   21.8440    3.0910 O      28521 WAT       0.2212
  28522 WAT        25.4090   21.8440    3.3410 O      28522 WAT       0.2431
  28523 WAT        25.4090   21.8440    3.5910 O      28523 WAT       0.1989
  28524 WAT        25.4090   21.8440    3.8410 O      28524 WAT       0.1256
  28525 WAT        25.4090   21.8440    4.0910 O      28525 WAT       0.0639
  28526 WAT        25.4090   21.8440   19.0910 O      28526 WAT       0.0598
  28527 WAT        25.4090   21.8440   19.3410 O      28527 WAT       0.0661
  28528 WAT        25.4090   21.8440   19.5910 O      28528 WAT       0.0529
  28529 WAT        25.4090   21.8440   27.3410 O      28529 WAT       0.0468
  28530 WAT        25.4090   21.8440   27.5910 O      28530 WAT       0.0830
  28531 WAT        25.4090   21.8440   27.8410 O      28531 WAT       0.0950
  28532 WAT        25.4090   21.8440   28.0910 O      28532 WAT       0.0710
  28533 WAT        25.4090   22.0940    2.5910 O      28533 WAT       0.0931
  28534 WAT        25.4090   22.0940    2.8410 O      28534 WAT       0.1789
  28535 WAT        25.4090   22.0940    3.0910 O      28535 WAT       0.2450
  28536 WAT        25.4090   22.0940    3.3410 O      28536 WAT       0.2372
  28537 WAT        25.4090   22.0940    3.5910 O      28537 WAT       0.1645
  28538 WAT        25.4090   22.0940    3.8410 O      28538 WAT       0.0840
  28539 WAT        25.4090   22.0940   18.8410 O      28539 WAT       0.0462
  28540 WAT        25.4090   22.0940   19.0910 O      28540 WAT       0.0755
  28541 WAT        25.4090   22.0940   19.3410 O      28541 WAT       0.0885
  28542 WAT        25.4090   22.0940   19.5910 O      28542 WAT       0.0750
  28543 WAT        25.4090   22.0940   19.8410 O      28543 WAT       0.0458
  28544 WAT        25.4090   22.0940   27.3410 O      28544 WAT       0.0750
  28545 WAT        25.4090   22.0940   27.5910 O      28545 WAT       0.1455
  28546 WAT        25.4090   22.0940   27.8410 O      28546 WAT       0.1798
  28547 WAT        25.4090   22.0940   28.0910 O      28547 WAT       0.1436
  28548 WAT        25.4090   22.0940   28.3410 O      28548 WAT       0.0763
  28549 WAT        25.4090   22.3440    2.5910 O      28549 WAT       0.0973
  28550 WAT        25.4090   22.3440    2.8410 O      28550 WAT       0.1740
  28551 WAT        25.4090   22.3440    3.0910 O      28551 WAT       0.2166
  28552 WAT        25.4090   22.3440    3.3410 O      28552 WAT       0.1866
  28553 WAT        25.4090   22.3440    3.5910 O      28553 WAT       0.1117
  28554 WAT        25.4090   22.3440    3.8410 O      28554 WAT       0.0469
  28555 WAT        25.4090   22.3440   18.8410 O      28555 WAT       0.0478
  28556 WAT        25.4090   22.3440   19.0910 O      28556 WAT       0.0821
  28557 WAT        25.4090   22.3440   19.3410 O      28557 WAT       0.1011
  28558 WAT        25.4090   22.3440   19.5910 O      28558 WAT       0.0904
  28559 WAT        25.4090   22.3440   19.8410 O      28559 WAT       0.0589
  28560 WAT        25.4090   22.3440   27.3410 O      28560 WAT       0.1070
  28561 WAT        25.4090   22.3440   27.5910 O      28561 WAT       0.2158
  28562 WAT        25.4090   22.3440   27.8410 O      28562 WAT       0.2764
  28563 WAT        25.4090   22.3440   28.0910 O      28563 WAT       0.2279
  28564 WAT        25.4090   22.3440   28.3410 O      28564 WAT       0.1248
  28565 WAT        25.4090   22.3440   28.5910 O      28565 WAT       0.0496
  28566 WAT        25.4090   22.5940    2.5910 O      28566 WAT       0.0880
  28567 WAT        25.4090   22.5940    2.8410 O      28567 WAT       0.1432
  28568 WAT        25.4090   22.5940    3.0910 O      28568 WAT       0.1601
  28569 WAT        25.4090   22.5940    3.3410 O      28569 WAT       0.1222
  28570 WAT        25.4090   22.5940    3.5910 O      28570 WAT       0.0635
  28571 WAT        25.4090   22.5940   19.0910 O      28571 WAT       0.0762
  28572 WAT        25.4090   22.5940   19.3410 O      28572 WAT       0.0989
  28573 WAT        25.4090   22.5940   19.5910 O      28573 WAT       0.0940
  28574 WAT        25.4090   22.5940   19.8410 O      28574 WAT       0.0658
  28575 WAT        25.4090   22.5940   27.3410 O      28575 WAT       0.1171
  28576 WAT        25.4090   22.5940   27.5910 O      28576 WAT       0.2389
  28577 WAT        25.4090   22.5940   27.8410 O      28577 WAT       0.3106
  28578 WAT        25.4090   22.5940   28.0910 O      28578 WAT       0.2605
  28579 WAT        25.4090   22.5940   28.3410 O      28579 WAT       0.1454
  28580 WAT        25.4090   22.5940   28.5910 O      28580 WAT       0.0592
  28581 WAT        25.4090   22.8440    2.5910 O      28581 WAT       0.0790
  28582 WAT        25.4090   22.8440    2.8410 O      28582 WAT       0.1150
  28583 WAT        25.4090   22.8440    3.0910 O      28583 WAT       0.1129
  28584 WAT        25.4090   22.8440    3.3410 O      28584 WAT       0.0746
  28585 WAT        25.4090   22.8440   19.0910 O      28585 WAT       0.0618
  28586 WAT        25.4090   22.8440   19.3410 O      28586 WAT       0.0848
  28587 WAT        25.4090   22.8440   19.5910 O      28587 WAT       0.0860
  28588 WAT        25.4090   22.8440   19.8410 O      28588 WAT       0.0652
  28589 WAT        25.4090   22.8440   27.3410 O      28589 WAT       0.0971
  28590 WAT        25.4090   22.8440   27.5910 O      28590 WAT       0.1924
  28591 WAT        25.4090   22.8440   27.8410 O      28591 WAT       0.2479
  28592 WAT        25.4090   22.8440   28.0910 O      28592 WAT       0.2085
  28593 WAT        25.4090   22.8440   28.3410 O      28593 WAT       0.1181
  28594 WAT        25.4090   22.8440   28.5910 O      28594 WAT       0.0493
  28595 WAT        25.4090   23.0940    2.5910 O      28595 WAT       0.0768
  28596 WAT        25.4090   23.0940    2.8410 O      28596 WAT       0.1022
  28597 WAT        25.4090   23.0940    3.0910 O      28597 WAT       0.0896
  28598 WAT        25.4090   23.0940    3.3410 O      28598 WAT       0.0514
  28599 WAT        25.4090   23.0940   19.0910 O      28599 WAT       0.0465
  28600 WAT        25.4090   23.0940   19.3410 O      28600 WAT       0.0668
  28601 WAT        25.4090   23.0940   19.5910 O      28601 WAT       0.0721
  28602 WAT        25.4090   23.0940   19.8410 O      28602 WAT       0.0593
  28603 WAT        25.4090   23.0940   27.3410 O      28603 WAT       0.0692
  28604 WAT        25.4090   23.0940   27.5910 O      28604 WAT       0.1209
  28605 WAT        25.4090   23.0940   27.8410 O      28605 WAT       0.1458
  28606 WAT        25.4090   23.0940   28.0910 O      28606 WAT       0.1194
  28607 WAT        25.4090   23.0940   28.3410 O      28607 WAT       0.0678
  28608 WAT        25.4090   23.3440    2.5910 O      28608 WAT       0.0738
  28609 WAT        25.4090   23.3440    2.8410 O      28609 WAT       0.0943
  28610 WAT        25.4090   23.3440    3.0910 O      28610 WAT       0.0783
  28611 WAT        25.4090   23.3440   19.3410 O      28611 WAT       0.0519
  28612 WAT        25.4090   23.3440   19.5910 O      28612 WAT       0.0583
  28613 WAT        25.4090   23.3440   19.8410 O      28613 WAT       0.0514
  28614 WAT        25.4090   23.3440   27.3410 O      28614 WAT       0.0556
  28615 WAT        25.4090   23.3440   27.5910 O      28615 WAT       0.0736
  28616 WAT        25.4090   23.3440   27.8410 O      28616 WAT       0.0736
  28617 WAT        25.4090   23.3440   28.0910 O      28617 WAT       0.0544
  28618 WAT        25.4090   23.5940    2.5910 O      28618 WAT       0.0626
  28619 WAT        25.4090   23.5940    2.8410 O      28619 WAT       0.0792
  28620 WAT        25.4090   23.5940    3.0910 O      28620 WAT       0.0650
  28621 WAT        25.4090   23.5940   19.5910 O      28621 WAT       0.0479
  28622 WAT        25.4090   23.5940   27.3410 O      28622 WAT       0.0547
  28623 WAT        25.4090   23.5940   27.5910 O      28623 WAT       0.0540
  28624 WAT        25.4090   23.8440    2.5910 O      28624 WAT       0.0459
  28625 WAT        25.4090   23.8440    2.8410 O      28625 WAT       0.0580
  28626 WAT        25.4090   23.8440    3.0910 O      28626 WAT       0.0476
  28627 WAT        25.4090   23.8440   27.0910 O      28627 WAT       0.0466
  28628 WAT        25.4090   23.8440   27.3410 O      28628 WAT       0.0521
  28629 WAT        25.4090   24.0940   23.5910 O      28629 WAT       0.0465
  28630 WAT        25.4090   24.0940   23.8410 O      28630 WAT       0.0639
  28631 WAT        25.4090   24.0940   24.0910 O      28631 WAT       0.0709
  28632 WAT        25.4090   24.0940   24.3410 O      28632 WAT       0.0661
  28633 WAT        25.4090   24.0940   24.5910 O      28633 WAT       0.0553
  28634 WAT        25.4090   24.3440   23.5910 O      28634 WAT       0.0499
  28635 WAT        25.4090   24.3440   23.8410 O      28635 WAT       0.0731
  28636 WAT        25.4090   24.3440   24.0910 O      28636 WAT       0.0886
  28637 WAT        25.4090   24.3440   24.3410 O      28637 WAT       0.0919
  28638 WAT        25.4090   24.3440   24.5910 O      28638 WAT       0.0865
  28639 WAT        25.4090   24.3440   24.8410 O      28639 WAT       0.0791
  28640 WAT        25.4090   24.3440   25.0910 O      28640 WAT       0.0730
  28641 WAT        25.4090   24.3440   25.3410 O      28641 WAT       0.0676
  28642 WAT        25.4090   24.3440   25.5910 O      28642 WAT       0.0600
  28643 WAT        25.4090   24.3440   25.8410 O      28643 WAT       0.0490
  28644 WAT        25.4090   24.5940   23.8410 O      28644 WAT       0.0597
  28645 WAT        25.4090   24.5940   24.0910 O      28645 WAT       0.0790
  28646 WAT        25.4090   24.5940   24.3410 O      28646 WAT       0.0910
  28647 WAT        25.4090   24.5940   24.5910 O      28647 WAT       0.0960
  28648 WAT        25.4090   24.5940   24.8410 O      28648 WAT       0.0972
  28649 WAT        25.4090   24.5940   25.0910 O      28649 WAT       0.0961
  28650 WAT        25.4090   24.5940   25.3410 O      28650 WAT       0.0913
  28651 WAT        25.4090   24.5940   25.5910 O      28651 WAT       0.0803
  28652 WAT        25.4090   24.5940   25.8410 O      28652 WAT       0.0633
  28653 WAT        25.4090   24.5940   26.0910 O      28653 WAT       0.0452
  28654 WAT        25.4090   24.5940   28.3410 O      28654 WAT       0.0486
  28655 WAT        25.4090   24.5940   28.5910 O      28655 WAT       0.0485
  28656 WAT        25.4090   24.5940   28.8410 O      28656 WAT       0.0450
  28657 WAT        25.4090   24.8440   24.0910 O      28657 WAT       0.0527
  28658 WAT        25.4090   24.8440   24.3410 O      28658 WAT       0.0668
  28659 WAT        25.4090   24.8440   24.5910 O      28659 WAT       0.0775
  28660 WAT        25.4090   24.8440   24.8410 O      28660 WAT       0.0849
  28661 WAT        25.4090   24.8440   25.0910 O      28661 WAT       0.0881
  28662 WAT        25.4090   24.8440   25.3410 O      28662 WAT       0.0849
  28663 WAT        25.4090   24.8440   25.5910 O      28663 WAT       0.0739
  28664 WAT        25.4090   24.8440   25.8410 O      28664 WAT       0.0569
  28665 WAT        25.4090   24.8440   27.5910 O      28665 WAT       0.0501
  28666 WAT        25.4090   24.8440   27.8410 O      28666 WAT       0.0645
  28667 WAT        25.4090   24.8440   28.0910 O      28667 WAT       0.0768
  28668 WAT        25.4090   24.8440   28.3410 O      28668 WAT       0.0824
  28669 WAT        25.4090   24.8440   28.5910 O      28669 WAT       0.0794
  28670 WAT        25.4090   24.8440   28.8410 O      28670 WAT       0.0698
  28671 WAT        25.4090   24.8440   29.0910 O      28671 WAT       0.0558
  28672 WAT        25.4090   25.0940   24.5910 O      28672 WAT       0.0499
  28673 WAT        25.4090   25.0940   24.8410 O      28673 WAT       0.0565
  28674 WAT        25.4090   25.0940   25.0910 O      28674 WAT       0.0597
  28675 WAT        25.4090   25.0940   25.3410 O      28675 WAT       0.0579
  28676 WAT        25.4090   25.0940   25.5910 O      28676 WAT       0.0504
  28677 WAT        25.4090   25.0940   27.3410 O      28677 WAT       0.0618
  28678 WAT        25.4090   25.0940   27.5910 O      28678 WAT       0.0806
  28679 WAT        25.4090   25.0940   27.8410 O      28679 WAT       0.0985
  28680 WAT        25.4090   25.0940   28.0910 O      28680 WAT       0.1114
  28681 WAT        25.4090   25.0940   28.3410 O      28681 WAT       0.1139
  28682 WAT        25.4090   25.0940   28.5910 O      28682 WAT       0.1045
  28683 WAT        25.4090   25.0940   28.8410 O      28683 WAT       0.0864
  28684 WAT        25.4090   25.0940   29.0910 O      28684 WAT       0.0644
  28685 WAT        25.4090   25.3440   27.0910 O      28685 WAT       0.0618
  28686 WAT        25.4090   25.3440   27.3410 O      28686 WAT       0.0838
  28687 WAT        25.4090   25.3440   27.5910 O      28687 WAT       0.1040
  28688 WAT        25.4090   25.3440   27.8410 O      28688 WAT       0.1193
  28689 WAT        25.4090   25.3440   28.0910 O      28689 WAT       0.1261
  28690 WAT        25.4090   25.3440   28.3410 O      28690 WAT       0.1213
  28691 WAT        25.4090   25.3440   28.5910 O      28691 WAT       0.1051
  28692 WAT        25.4090   25.3440   28.8410 O      28692 WAT       0.0819
  28693 WAT        25.4090   25.3440   29.0910 O      28693 WAT       0.0574
  28694 WAT        25.4090   25.5940   26.8410 O      28694 WAT       0.0506
  28695 WAT        25.4090   25.5940   27.0910 O      28695 WAT       0.0702
  28696 WAT        25.4090   25.5940   27.3410 O      28696 WAT       0.0903
  28697 WAT        25.4090   25.5940   27.5910 O      28697 WAT       0.1052
  28698 WAT        25.4090   25.5940   27.8410 O      28698 WAT       0.1121
  28699 WAT        25.4090   25.5940   28.0910 O      28699 WAT       0.1099
  28700 WAT        25.4090   25.5940   28.3410 O      28700 WAT       0.0988
  28701 WAT        25.4090   25.5940   28.5910 O      28701 WAT       0.0807
  28702 WAT        25.4090   25.5940   28.8410 O      28702 WAT       0.0595
  28703 WAT        25.4090   25.8440   16.3410 O      28703 WAT       0.0476
  28704 WAT        25.4090   25.8440   22.5910 O      28704 WAT       0.0526
  28705 WAT        25.4090   25.8440   22.8410 O      28705 WAT       0.0632
  28706 WAT        25.4090   25.8440   23.0910 O      28706 WAT       0.0684
  28707 WAT        25.4090   25.8440   23.3410 O      28707 WAT       0.0683
  28708 WAT        25.4090   25.8440   23.5910 O      28708 WAT       0.0643
  28709 WAT        25.4090   25.8440   23.8410 O      28709 WAT       0.0592
  28710 WAT        25.4090   25.8440   24.0910 O      28710 WAT       0.0549
  28711 WAT        25.4090   25.8440   24.3410 O      28711 WAT       0.0512
  28712 WAT        25.4090   25.8440   24.5910 O      28712 WAT       0.0459
  28713 WAT        25.4090   25.8440   26.8410 O      28713 WAT       0.0551
  28714 WAT        25.4090   25.8440   27.0910 O      28714 WAT       0.0694
  28715 WAT        25.4090   25.8440   27.3410 O      28715 WAT       0.0821
  28716 WAT        25.4090   25.8440   27.5910 O      28716 WAT       0.0883
  28717 WAT        25.4090   25.8440   27.8410 O      28717 WAT       0.0863
  28718 WAT        25.4090   25.8440   28.0910 O      28718 WAT       0.0778
  28719 WAT        25.4090   25.8440   28.3410 O      28719 WAT       0.0649
  28720 WAT        25.4090   25.8440   28.5910 O      28720 WAT       0.0497
  28721 WAT        25.4090   26.0940   15.8410 O      28721 WAT       0.0665
  28722 WAT        25.4090   26.0940   16.0910 O      28722 WAT       0.1077
  28723 WAT        25.4090   26.0940   16.3410 O      28723 WAT       0.1206
  28724 WAT        25.4090   26.0940   16.5910 O      28724 WAT       0.0966
  28725 WAT        25.4090   26.0940   16.8410 O      28725 WAT       0.0570
  28726 WAT        25.4090   26.0940   22.0910 O      28726 WAT       0.0472
  28727 WAT        25.4090   26.0940   22.3410 O      28727 WAT       0.0670
  28728 WAT        25.4090   26.0940   22.5910 O      28728 WAT       0.0851
  28729 WAT        25.4090   26.0940   22.8410 O      28729 WAT       0.0950
  28730 WAT        25.4090   26.0940   23.0910 O      28730 WAT       0.0953
  28731 WAT        25.4090   26.0940   23.3410 O      28731 WAT       0.0885
  28732 WAT        25.4090   26.0940   23.5910 O      28732 WAT       0.0781
  28733 WAT        25.4090   26.0940   23.8410 O      28733 WAT       0.0680
  28734 WAT        25.4090   26.0940   24.0910 O      28734 WAT       0.0611
  28735 WAT        25.4090   26.0940   24.3410 O      28735 WAT       0.0568
  28736 WAT        25.4090   26.0940   24.5910 O      28736 WAT       0.0521
  28737 WAT        25.4090   26.0940   24.8410 O      28737 WAT       0.0459
  28738 WAT        25.4090   26.0940   25.8410 O      28738 WAT       0.0465
  28739 WAT        25.4090   26.0940   26.0910 O      28739 WAT       0.0483
  28740 WAT        25.4090   26.0940   26.3410 O      28740 WAT       0.0489
  28741 WAT        25.4090   26.0940   26.5910 O      28741 WAT       0.0511
  28742 WAT        25.4090   26.0940   26.8410 O      28742 WAT       0.0565
  28743 WAT        25.4090   26.0940   27.0910 O      28743 WAT       0.0638
  28744 WAT        25.4090   26.0940   27.3410 O      28744 WAT       0.0691
  28745 WAT        25.4090   26.0940   27.5910 O      28745 WAT       0.0684
  28746 WAT        25.4090   26.0940   27.8410 O      28746 WAT       0.0613
  28747 WAT        25.4090   26.0940   28.0910 O      28747 WAT       0.0506
  28748 WAT        25.4090   26.3440   15.5910 O      28748 WAT       0.0594
  28749 WAT        25.4090   26.3440   15.8410 O      28749 WAT       0.1322
  28750 WAT        25.4090   26.3440   16.0910 O      28750 WAT       0.1967
  28751 WAT        25.4090   26.3440   16.3410 O      28751 WAT       0.2020
  28752 WAT        25.4090   26.3440   16.5910 O      28752 WAT       0.1471
  28753 WAT        25.4090   26.3440   16.8410 O      28753 WAT       0.0782
  28754 WAT        25.4090   26.3440   21.8410 O      28754 WAT       0.0454
  28755 WAT        25.4090   26.3440   22.0910 O      28755 WAT       0.0627
  28756 WAT        25.4090   26.3440   22.3410 O      28756 WAT       0.0838
  28757 WAT        25.4090   26.3440   22.5910 O      28757 WAT       0.1003
  28758 WAT        25.4090   26.3440   22.8410 O      28758 WAT       0.1052
  28759 WAT        25.4090   26.3440   23.0910 O      28759 WAT       0.0986
  28760 WAT        25.4090   26.3440   23.3410 O      28760 WAT       0.0856
  28761 WAT        25.4090   26.3440   23.5910 O      28761 WAT       0.0711
  28762 WAT        25.4090   26.3440   23.8410 O      28762 WAT       0.0590
  28763 WAT        25.4090   26.3440   24.0910 O      28763 WAT       0.0519
  28764 WAT        25.4090   26.3440   24.3410 O      28764 WAT       0.0490
  28765 WAT        25.4090   26.3440   24.5910 O      28765 WAT       0.0474
  28766 WAT        25.4090   26.3440   25.5910 O      28766 WAT       0.0483
  28767 WAT        25.4090   26.3440   25.8410 O      28767 WAT       0.0531
  28768 WAT        25.4090   26.3440   26.0910 O      28768 WAT       0.0547
  28769 WAT        25.4090   26.3440   26.3410 O      28769 WAT       0.0532
  28770 WAT        25.4090   26.3440   26.5910 O      28770 WAT       0.0518
  28771 WAT        25.4090   26.3440   26.8410 O      28771 WAT       0.0527
  28772 WAT        25.4090   26.3440   27.0910 O      28772 WAT       0.0550
  28773 WAT        25.4090   26.3440   27.3410 O      28773 WAT       0.0559
  28774 WAT        25.4090   26.3440   27.5910 O      28774 WAT       0.0524
  28775 WAT        25.4090   26.5940   15.5910 O      28775 WAT       0.0839
  28776 WAT        25.4090   26.5940   15.8410 O      28776 WAT       0.1727
  28777 WAT        25.4090   26.5940   16.0910 O      28777 WAT       0.2387
  28778 WAT        25.4090   26.5940   16.3410 O      28778 WAT       0.2271
  28779 WAT        25.4090   26.5940   16.5910 O      28779 WAT       0.1524
  28780 WAT        25.4090   26.5940   16.8410 O      28780 WAT       0.0741
  28781 WAT        25.4090   26.5940   19.5910 O      28781 WAT       0.0482
  28782 WAT        25.4090   26.5940   19.8410 O      28782 WAT       0.0569
  28783 WAT        25.4090   26.5940   20.0910 O      28783 WAT       0.0621
  28784 WAT        25.4090   26.5940   20.3410 O      28784 WAT       0.0618
  28785 WAT        25.4090   26.5940   20.5910 O      28785 WAT       0.0572
  28786 WAT        25.4090   26.5940   20.8410 O      28786 WAT       0.0510
  28787 WAT        25.4090   26.5940   21.0910 O      28787 WAT       0.0453
  28788 WAT        25.4090   26.5940   21.8410 O      28788 WAT       0.0478
  28789 WAT        25.4090   26.5940   22.0910 O      28789 WAT       0.0608
  28790 WAT        25.4090   26.5940   22.3410 O      28790 WAT       0.0764
  28791 WAT        25.4090   26.5940   22.5910 O      28791 WAT       0.0869
  28792 WAT        25.4090   26.5940   22.8410 O      28792 WAT       0.0864
  28793 WAT        25.4090   26.5940   23.0910 O      28793 WAT       0.0764
  28794 WAT        25.4090   26.5940   23.3410 O      28794 WAT       0.0622
  28795 WAT        25.4090   26.5940   23.5910 O      28795 WAT       0.0488
  28796 WAT        25.4090   26.5940   25.8410 O      28796 WAT       0.0491
  28797 WAT        25.4090   26.5940   26.0910 O      28797 WAT       0.0500
  28798 WAT        25.4090   26.5940   26.3410 O      28798 WAT       0.0473
  28799 WAT        25.4090   26.8440   15.5910 O      28799 WAT       0.0791
  28800 WAT        25.4090   26.8440   15.8410 O      28800 WAT       0.1513
  28801 WAT        25.4090   26.8440   16.0910 O      28801 WAT       0.1950
  28802 WAT        25.4090   26.8440   16.3410 O      28802 WAT       0.1732
  28803 WAT        25.4090   26.8440   16.5910 O      28803 WAT       0.1085
  28804 WAT        25.4090   26.8440   16.8410 O      28804 WAT       0.0489
  28805 WAT        25.4090   26.8440   19.3410 O      28805 WAT       0.0522
  28806 WAT        25.4090   26.8440   19.5910 O      28806 WAT       0.0661
  28807 WAT        25.4090   26.8440   19.8410 O      28807 WAT       0.0788
  28808 WAT        25.4090   26.8440   20.0910 O      28808 WAT       0.0854
  28809 WAT        25.4090   26.8440   20.3410 O      28809 WAT       0.0825
  28810 WAT        25.4090   26.8440   20.5910 O      28810 WAT       0.0722
  28811 WAT        25.4090   26.8440   20.8410 O      28811 WAT       0.0595
  28812 WAT        25.4090   26.8440   21.0910 O      28812 WAT       0.0482
  28813 WAT        25.4090   26.8440   22.3410 O      28813 WAT       0.0517
  28814 WAT        25.4090   26.8440   22.5910 O      28814 WAT       0.0562
  28815 WAT        25.4090   26.8440   22.8410 O      28815 WAT       0.0536
  28816 WAT        25.4090   27.0940   15.5910 O      28816 WAT       0.0507
  28817 WAT        25.4090   27.0940   15.8410 O      28817 WAT       0.0904
  28818 WAT        25.4090   27.0940   16.0910 O      28818 WAT       0.1091
  28819 WAT        25.4090   27.0940   16.3410 O      28819 WAT       0.0910
  28820 WAT        25.4090   27.0940   16.5910 O      28820 WAT       0.0536
  28821 WAT        25.4090   27.0940   19.3410 O      28821 WAT       0.0591
  28822 WAT        25.4090   27.0940   19.5910 O      28822 WAT       0.0742
  28823 WAT        25.4090   27.0940   19.8410 O      28823 WAT       0.0865
  28824 WAT        25.4090   27.0940   20.0910 O      28824 WAT       0.0904
  28825 WAT        25.4090   27.0940   20.3410 O      28825 WAT       0.0828
  28826 WAT        25.4090   27.0940   20.5910 O      28826 WAT       0.0671
  28827 WAT        25.4090   27.0940   20.8410 O      28827 WAT       0.0504
  28828 WAT        25.4090   27.3440   19.3410 O      28828 WAT       0.0555
  28829 WAT        25.4090   27.3440   19.5910 O      28829 WAT       0.0670
  28830 WAT        25.4090   27.3440   19.8410 O      28830 WAT       0.0742
  28831 WAT        25.4090   27.3440   20.0910 O      28831 WAT       0.0729
  28832 WAT        25.4090   27.3440   20.3410 O      28832 WAT       0.0623
  28833 WAT        25.4090   27.3440   20.5910 O      28833 WAT       0.0463
  28834 WAT        25.4090   27.5940   19.5910 O      28834 WAT       0.0483
  28835 WAT        25.4090   27.5940   19.8410 O      28835 WAT       0.0496
  28836 WAT        25.4090   27.5940   20.0910 O      28836 WAT       0.0450
  28837 WAT        25.4090   28.8440   15.3410 O      28837 WAT       0.0466
  28838 WAT        25.4090   28.8440   15.5910 O      28838 WAT       0.0578
  28839 WAT        25.4090   28.8440   15.8410 O      28839 WAT       0.0514
  28840 WAT        25.4090   28.8440   18.3410 O      28840 WAT       0.0685
  28841 WAT        25.4090   28.8440   18.5910 O      28841 WAT       0.0762
  28842 WAT        25.4090   28.8440   18.8410 O      28842 WAT       0.0613
  28843 WAT        25.4090   29.0940   15.3410 O      28843 WAT       0.0534
  28844 WAT        25.4090   29.0940   15.5910 O      28844 WAT       0.0672
  28845 WAT        25.4090   29.0940   15.8410 O      28845 WAT       0.0613
  28846 WAT        25.4090   29.0940   18.0910 O      28846 WAT       0.0846
  28847 WAT        25.4090   29.0940   18.3410 O      28847 WAT       0.1203
  28848 WAT        25.4090   29.0940   18.5910 O      28848 WAT       0.1240
  28849 WAT        25.4090   29.0940   18.8410 O      28849 WAT       0.0927
  28850 WAT        25.4090   29.0940   19.0910 O      28850 WAT       0.0504
  28851 WAT        25.4090   29.3440   15.3410 O      28851 WAT       0.0467
  28852 WAT        25.4090   29.3440   15.5910 O      28852 WAT       0.0592
  28853 WAT        25.4090   29.3440   15.8410 O      28853 WAT       0.0555
  28854 WAT        25.4090   29.3440   17.8410 O      28854 WAT       0.0774
  28855 WAT        25.4090   29.3440   18.0910 O      28855 WAT       0.1385
  28856 WAT        25.4090   29.3440   18.3410 O      28856 WAT       0.1792
  28857 WAT        25.4090   29.3440   18.5910 O      28857 WAT       0.1691
  28858 WAT        25.4090   29.3440   18.8410 O      28858 WAT       0.1167
  28859 WAT        25.4090   29.3440   19.0910 O      28859 WAT       0.0591
  28860 WAT        25.4090   29.5940   17.5910 O      28860 WAT       0.0514
  28861 WAT        25.4090   29.5940   17.8410 O      28861 WAT       0.1192
  28862 WAT        25.4090   29.5940   18.0910 O      28862 WAT       0.1942
  28863 WAT        25.4090   29.5940   18.3410 O      28863 WAT       0.2273
  28864 WAT        25.4090   29.5940   18.5910 O      28864 WAT       0.1945
  28865 WAT        25.4090   29.5940   18.8410 O      28865 WAT       0.1227
  28866 WAT        25.4090   29.5940   19.0910 O      28866 WAT       0.0577
  28867 WAT        25.4090   29.5940   26.5910 O      28867 WAT       0.0526
  28868 WAT        25.4090   29.5940   26.8410 O      28868 WAT       0.0584
  28869 WAT        25.4090   29.5940   27.0910 O      28869 WAT       0.0592
  28870 WAT        25.4090   29.5940   27.3410 O      28870 WAT       0.0547
  28871 WAT        25.4090   29.5940   27.5910 O      28871 WAT       0.0471
  28872 WAT        25.4090   29.8440   17.5910 O      28872 WAT       0.0718
  28873 WAT        25.4090   29.8440   17.8410 O      28873 WAT       0.1551
  28874 WAT        25.4090   29.8440   18.0910 O      28874 WAT       0.2326
  28875 WAT        25.4090   29.8440   18.3410 O      28875 WAT       0.2479
  28876 WAT        25.4090   29.8440   18.5910 O      28876 WAT       0.1918
  28877 WAT        25.4090   29.8440   18.8410 O      28877 WAT       0.1099
  28878 WAT        25.4090   29.8440   19.0910 O      28878 WAT       0.0476
  28879 WAT        25.4090   29.8440   26.3410 O      28879 WAT       0.0590
  28880 WAT        25.4090   29.8440   26.5910 O      28880 WAT       0.0725
  28881 WAT        25.4090   29.8440   26.8410 O      28881 WAT       0.0810
  28882 WAT        25.4090   29.8440   27.0910 O      28882 WAT       0.0828
  28883 WAT        25.4090   29.8440   27.3410 O      28883 WAT       0.0768
  28884 WAT        25.4090   29.8440   27.5910 O      28884 WAT       0.0652
  28885 WAT        25.4090   29.8440   27.8410 O      28885 WAT       0.0535
  28886 WAT        25.4090   29.8440   28.0910 O      28886 WAT       0.0460
  28887 WAT        25.4090   29.8440   28.8410 O      28887 WAT       0.0466
  28888 WAT        25.4090   29.8440   29.0910 O      28888 WAT       0.0477
  28889 WAT        25.4090   30.0940   17.5910 O      28889 WAT       0.0832
  28890 WAT        25.4090   30.0940   17.8410 O      28890 WAT       0.1698
  28891 WAT        25.4090   30.0940   18.0910 O      28891 WAT       0.2384
  28892 WAT        25.4090   30.0940   18.3410 O      28892 WAT       0.2345
  28893 WAT        25.4090   30.0940   18.5910 O      28893 WAT       0.1653
  28894 WAT        25.4090   30.0940   18.8410 O      28894 WAT       0.0860
  28895 WAT        25.4090   30.0940   26.0910 O      28895 WAT       0.0515
  28896 WAT        25.4090   30.0940   26.3410 O      28896 WAT       0.0711
  28897 WAT        25.4090   30.0940   26.5910 O      28897 WAT       0.0884
  28898 WAT        25.4090   30.0940   26.8410 O      28898 WAT       0.1003
  28899 WAT        25.4090   30.0940   27.0910 O      28899 WAT       0.1036
  28900 WAT        25.4090   30.0940   27.3410 O      28900 WAT       0.0962
  28901 WAT        25.4090   30.0940   27.5910 O      28901 WAT       0.0808
  28902 WAT        25.4090   30.0940   27.8410 O      28902 WAT       0.0641
  28903 WAT        25.4090   30.0940   28.0910 O      28903 WAT       0.0514
  28904 WAT        25.4090   30.0940   28.8410 O      28904 WAT       0.0453
  28905 WAT        25.4090   30.0940   29.0910 O      28905 WAT       0.0473
  28906 WAT        25.4090   30.3440   17.5910 O      28906 WAT       0.0809
  28907 WAT        25.4090   30.3440   17.8410 O      28907 WAT       0.1576
  28908 WAT        25.4090   30.3440   18.0910 O      28908 WAT       0.2101
  28909 WAT        25.4090   30.3440   18.3410 O      28909 WAT       0.1939
  28910 WAT        25.4090   30.3440   18.5910 O      28910 WAT       0.1266
  28911 WAT        25.4090   30.3440   18.8410 O      28911 WAT       0.0603
  28912 WAT        25.4090   30.3440   26.0910 O      28912 WAT       0.0535
  28913 WAT        25.4090   30.3440   26.3410 O      28913 WAT       0.0744
  28914 WAT        25.4090   30.3440   26.5910 O      28914 WAT       0.0947
  28915 WAT        25.4090   30.3440   26.8410 O      28915 WAT       0.1096
  28916 WAT        25.4090   30.3440   27.0910 O      28916 WAT       0.1143
  28917 WAT        25.4090   30.3440   27.3410 O      28917 WAT       0.1061
  28918 WAT        25.4090   30.3440   27.5910 O      28918 WAT       0.0882
  28919 WAT        25.4090   30.3440   27.8410 O      28919 WAT       0.0679
  28920 WAT        25.4090   30.3440   28.0910 O      28920 WAT       0.0515
  28921 WAT        25.4090   30.5940   17.5910 O      28921 WAT       0.0673
  28922 WAT        25.4090   30.5940   17.8410 O      28922 WAT       0.1260
  28923 WAT        25.4090   30.5940   18.0910 O      28923 WAT       0.1612
  28924 WAT        25.4090   30.5940   18.3410 O      28924 WAT       0.1420
  28925 WAT        25.4090   30.5940   18.5910 O      28925 WAT       0.0878
  28926 WAT        25.4090   30.5940   26.0910 O      28926 WAT       0.0491
  28927 WAT        25.4090   30.5940   26.3410 O      28927 WAT       0.0686
  28928 WAT        25.4090   30.5940   26.5910 O      28928 WAT       0.0894
  28929 WAT        25.4090   30.5940   26.8410 O      28929 WAT       0.1056
  28930 WAT        25.4090   30.5940   27.0910 O      28930 WAT       0.1108
  28931 WAT        25.4090   30.5940   27.3410 O      28931 WAT       0.1025
  28932 WAT        25.4090   30.5940   27.5910 O      28932 WAT       0.0841
  28933 WAT        25.4090   30.5940   27.8410 O      28933 WAT       0.0630
  28934 WAT        25.4090   30.5940   28.0910 O      28934 WAT       0.0461
  28935 WAT        25.4090   30.8440   17.5910 O      28935 WAT       0.0495
  28936 WAT        25.4090   30.8440   17.8410 O      28936 WAT       0.0896
  28937 WAT        25.4090   30.8440   18.0910 O      28937 WAT       0.1113
  28938 WAT        25.4090   30.8440   18.3410 O      28938 WAT       0.0956
  28939 WAT        25.4090   30.8440   18.5910 O      28939 WAT       0.0580
  28940 WAT        25.4090   30.8440   26.3410 O      28940 WAT       0.0569
  28941 WAT        25.4090   30.8440   26.5910 O      28941 WAT       0.0751
  28942 WAT        25.4090   30.8440   26.8410 O      28942 WAT       0.0899
  28943 WAT        25.4090   30.8440   27.0910 O      28943 WAT       0.0949
  28944 WAT        25.4090   30.8440   27.3410 O      28944 WAT       0.0876
  28945 WAT        25.4090   30.8440   27.5910 O      28945 WAT       0.0712
  28946 WAT        25.4090   30.8440   27.8410 O      28946 WAT       0.0525
  28947 WAT        25.4090   31.0940   15.3410 O      28947 WAT       0.0536
  28948 WAT        25.4090   31.0940   15.5910 O      28948 WAT       0.0594
  28949 WAT        25.4090   31.0940   15.8410 O      28949 WAT       0.0473
  28950 WAT        25.4090   31.0940   17.8410 O      28950 WAT       0.0612
  28951 WAT        25.4090   31.0940   18.0910 O      28951 WAT       0.0756
  28952 WAT        25.4090   31.0940   18.3410 O      28952 WAT       0.0654
  28953 WAT        25.4090   31.0940   26.5910 O      28953 WAT       0.0574
  28954 WAT        25.4090   31.0940   26.8410 O      28954 WAT       0.0689
  28955 WAT        25.4090   31.0940   27.0910 O      28955 WAT       0.0732
  28956 WAT        25.4090   31.0940   27.3410 O      28956 WAT       0.0680
  28957 WAT        25.4090   31.0940   27.5910 O      28957 WAT       0.0555
  28958 WAT        25.4090   31.3440   15.3410 O      28958 WAT       0.0629
  28959 WAT        25.4090   31.3440   15.5910 O      28959 WAT       0.0731
  28960 WAT        25.4090   31.3440   15.8410 O      28960 WAT       0.0611
  28961 WAT        25.4090   31.3440   17.8410 O      28961 WAT       0.0460
  28962 WAT        25.4090   31.3440   18.0910 O      28962 WAT       0.0581
  28963 WAT        25.4090   31.3440   18.3410 O      28963 WAT       0.0523
  28964 WAT        25.4090   31.3440   26.8410 O      28964 WAT       0.0499
  28965 WAT        25.4090   31.3440   27.0910 O      28965 WAT       0.0530
  28966 WAT        25.4090   31.3440   27.3410 O      28966 WAT       0.0499
  28967 WAT        25.4090   31.5940   15.3410 O      28967 WAT       0.0662
  28968 WAT        25.4090   31.5940   15.5910 O      28968 WAT       0.0792
  28969 WAT        25.4090   31.5940   15.8410 O      28969 WAT       0.0684
  28970 WAT        25.4090   31.5940   16.0910 O      28970 WAT       0.0468
  28971 WAT        25.4090   31.5940   18.0910 O      28971 WAT       0.0534
  28972 WAT        25.4090   31.5940   18.3410 O      28972 WAT       0.0503
  28973 WAT        25.4090   31.5940   21.0910 O      28973 WAT       0.0488
  28974 WAT        25.4090   31.5940   21.3410 O      28974 WAT       0.0538
  28975 WAT        25.4090   31.5940   21.5910 O      28975 WAT       0.0468
  28976 WAT        25.4090   31.8440   15.3410 O      28976 WAT       0.0644
  28977 WAT        25.4090   31.8440   15.5910 O      28977 WAT       0.0779
  28978 WAT        25.4090   31.8440   15.8410 O      28978 WAT       0.0686
  28979 WAT        25.4090   31.8440   16.0910 O      28979 WAT       0.0489
  28980 WAT        25.4090   31.8440   18.0910 O      28980 WAT       0.0529
  28981 WAT        25.4090   31.8440   18.3410 O      28981 WAT       0.0515
  28982 WAT        25.4090   31.8440   20.5910 O      28982 WAT       0.0499
  28983 WAT        25.4090   31.8440   20.8410 O      28983 WAT       0.0694
  28984 WAT        25.4090   31.8440   21.0910 O      28984 WAT       0.0891
  28985 WAT        25.4090   31.8440   21.3410 O      28985 WAT       0.0967
  28986 WAT        25.4090   31.8440   21.5910 O      28986 WAT       0.0831
  28987 WAT        25.4090   31.8440   21.8410 O      28987 WAT       0.0551
  28988 WAT        25.4090   32.0940   15.3410 O      28988 WAT       0.0602
  28989 WAT        25.4090   32.0940   15.5910 O      28989 WAT       0.0726
  28990 WAT        25.4090   32.0940   15.8410 O      28990 WAT       0.0654
  28991 WAT        25.4090   32.0940   16.0910 O      28991 WAT       0.0494
  28992 WAT        25.4090   32.0940   18.0910 O      28992 WAT       0.0509
  28993 WAT        25.4090   32.0940   18.3410 O      28993 WAT       0.0505
  28994 WAT        25.4090   32.0940   20.0910 O      28994 WAT       0.0451
  28995 WAT        25.4090   32.0940   20.3410 O      28995 WAT       0.0598
  28996 WAT        25.4090   32.0940   20.5910 O      28996 WAT       0.0801
  28997 WAT        25.4090   32.0940   20.8410 O      28997 WAT       0.1060
  28998 WAT        25.4090   32.0940   21.0910 O      28998 WAT       0.1297
  28999 WAT        25.4090   32.0940   21.3410 O      28999 WAT       0.1353
  29000 WAT        25.4090   32.0940   21.5910 O      29000 WAT       0.1130
  29001 WAT        25.4090   32.0940   21.8410 O      29001 WAT       0.0736
  29002 WAT        25.4090   32.3440   15.3410 O      29002 WAT       0.0567
  29003 WAT        25.4090   32.3440   15.5910 O      29003 WAT       0.0676
  29004 WAT        25.4090   32.3440   15.8410 O      29004 WAT       0.0628
  29005 WAT        25.4090   32.3440   16.0910 O      29005 WAT       0.0513
  29006 WAT        25.4090   32.3440   18.0910 O      29006 WAT       0.0462
  29007 WAT        25.4090   32.3440   18.3410 O      29007 WAT       0.0464
  29008 WAT        25.4090   32.3440   19.8410 O      29008 WAT       0.0484
  29009 WAT        25.4090   32.3440   20.0910 O      29009 WAT       0.0637
  29010 WAT        25.4090   32.3440   20.3410 O      29010 WAT       0.0830
  29011 WAT        25.4090   32.3440   20.5910 O      29011 WAT       0.1063
  29012 WAT        25.4090   32.3440   20.8410 O      29012 WAT       0.1316
  29013 WAT        25.4090   32.3440   21.0910 O      29013 WAT       0.1503
  29014 WAT        25.4090   32.3440   21.3410 O      29014 WAT       0.1479
  29015 WAT        25.4090   32.3440   21.5910 O      29015 WAT       0.1184
  29016 WAT        25.4090   32.3440   21.8410 O      29016 WAT       0.0753
  29017 WAT        25.4090   32.5940   15.3410 O      29017 WAT       0.0556
  29018 WAT        25.4090   32.5940   15.5910 O      29018 WAT       0.0645
  29019 WAT        25.4090   32.5940   15.8410 O      29019 WAT       0.0619
  29020 WAT        25.4090   32.5940   16.0910 O      29020 WAT       0.0547
  29021 WAT        25.4090   32.5940   16.3410 O      29021 WAT       0.0461
  29022 WAT        25.4090   32.5940   19.8410 O      29022 WAT       0.0580
  29023 WAT        25.4090   32.5940   20.0910 O      29023 WAT       0.0757
  29024 WAT        25.4090   32.5940   20.3410 O      29024 WAT       0.0958
  29025 WAT        25.4090   32.5940   20.5910 O      29025 WAT       0.1160
  29026 WAT        25.4090   32.5940   20.8410 O      29026 WAT       0.1327
  29027 WAT        25.4090   32.5940   21.0910 O      29027 WAT       0.1390
  29028 WAT        25.4090   32.5940   21.3410 O      29028 WAT       0.1268
  29029 WAT        25.4090   32.5940   21.5910 O      29029 WAT       0.0961
  29030 WAT        25.4090   32.5940   21.8410 O      29030 WAT       0.0594
  29031 WAT        25.4090   32.8440   11.8410 O      29031 WAT       0.0459
  29032 WAT        25.4090   32.8440   12.0910 O      29032 WAT       0.0645
  29033 WAT        25.4090   32.8440   12.3410 O      29033 WAT       0.0647
  29034 WAT        25.4090   32.8440   12.5910 O      29034 WAT       0.0456
  29035 WAT        25.4090   32.8440   15.3410 O      29035 WAT       0.0563
  29036 WAT        25.4090   32.8440   15.5910 O      29036 WAT       0.0627
  29037 WAT        25.4090   32.8440   15.8410 O      29037 WAT       0.0617
  29038 WAT        25.4090   32.8440   16.0910 O      29038 WAT       0.0580
  29039 WAT        25.4090   32.8440   16.3410 O      29039 WAT       0.0512
  29040 WAT        25.4090   32.8440   19.8410 O      29040 WAT       0.0581
  29041 WAT        25.4090   32.8440   20.0910 O      29041 WAT       0.0746
  29042 WAT        25.4090   32.8440   20.3410 O      29042 WAT       0.0907
  29043 WAT        25.4090   32.8440   20.5910 O      29043 WAT       0.1032
  29044 WAT        25.4090   32.8440   20.8410 O      29044 WAT       0.1083
  29045 WAT        25.4090   32.8440   21.0910 O      29045 WAT       0.1030
  29046 WAT        25.4090   32.8440   21.3410 O      29046 WAT       0.0859
  29047 WAT        25.4090   32.8440   21.5910 O      29047 WAT       0.0610
  29048 WAT        25.4090   32.8440   23.8410 O      29048 WAT       0.0473
  29049 WAT        25.4090   32.8440   24.0910 O      29049 WAT       0.0510
  29050 WAT        25.4090   32.8440   24.3410 O      29050 WAT       0.0508
  29051 WAT        25.4090   32.8440   24.5910 O      29051 WAT       0.0476
  29052 WAT        25.4090   33.0940   11.5910 O      29052 WAT       0.0627
  29053 WAT        25.4090   33.0940   11.8410 O      29053 WAT       0.1039
  29054 WAT        25.4090   33.0940   12.0910 O      29054 WAT       0.1381
  29055 WAT        25.4090   33.0940   12.3410 O      29055 WAT       0.1380
  29056 WAT        25.4090   33.0940   12.5910 O      29056 WAT       0.1008
  29057 WAT        25.4090   33.0940   12.8410 O      29057 WAT       0.0540
  29058 WAT        25.4090   33.0940   15.0910 O      29058 WAT       0.0466
  29059 WAT        25.4090   33.0940   15.3410 O      29059 WAT       0.0575
  29060 WAT        25.4090   33.0940   15.5910 O      29060 WAT       0.0610
  29061 WAT        25.4090   33.0940   15.8410 O      29061 WAT       0.0610
  29062 WAT        25.4090   33.0940   16.0910 O      29062 WAT       0.0597
  29063 WAT        25.4090   33.0940   16.3410 O      29063 WAT       0.0538
  29064 WAT        25.4090   33.0940   19.8410 O      29064 WAT       0.0472
  29065 WAT        25.4090   33.0940   20.0910 O      29065 WAT       0.0595
  29066 WAT        25.4090   33.0940   20.3410 O      29066 WAT       0.0694
  29067 WAT        25.4090   33.0940   20.5910 O      29067 WAT       0.0741
  29068 WAT        25.4090   33.0940   20.8410 O      29068 WAT       0.0714
  29069 WAT        25.4090   33.0940   21.0910 O      29069 WAT       0.0615
  29070 WAT        25.4090   33.0940   21.3410 O      29070 WAT       0.0468
  29071 WAT        25.4090   33.0940   23.5910 O      29071 WAT       0.0497
  29072 WAT        25.4090   33.0940   23.8410 O      29072 WAT       0.0570
  29073 WAT        25.4090   33.0940   24.0910 O      29073 WAT       0.0586
  29074 WAT        25.4090   33.0940   24.3410 O      29074 WAT       0.0551
  29075 WAT        25.4090   33.0940   24.5910 O      29075 WAT       0.0496
  29076 WAT        25.4090   33.3440   11.3410 O      29076 WAT       0.0732
  29077 WAT        25.4090   33.3440   11.5910 O      29077 WAT       0.1202
  29078 WAT        25.4090   33.3440   11.8410 O      29078 WAT       0.1724
  29079 WAT        25.4090   33.3440   12.0910 O      29079 WAT       0.2121
  29080 WAT        25.4090   33.3440   12.3410 O      29080 WAT       0.2090
  29081 WAT        25.4090   33.3440   12.5910 O      29081 WAT       0.1575
  29082 WAT        25.4090   33.3440   12.8410 O      29082 WAT       0.0901
  29083 WAT        25.4090   33.3440   15.0910 O      29083 WAT       0.0524
  29084 WAT        25.4090   33.3440   15.3410 O      29084 WAT       0.0583
  29085 WAT        25.4090   33.3440   15.5910 O      29085 WAT       0.0594
  29086 WAT        25.4090   33.3440   15.8410 O      29086 WAT       0.0602
  29087 WAT        25.4090   33.3440   16.0910 O      29087 WAT       0.0599
  29088 WAT        25.4090   33.3440   16.3410 O      29088 WAT       0.0539
  29089 WAT        25.4090   33.3440   23.3410 O      29089 WAT       0.0469
  29090 WAT        25.4090   33.3440   23.5910 O      29090 WAT       0.0579
  29091 WAT        25.4090   33.3440   23.8410 O      29091 WAT       0.0635
  29092 WAT        25.4090   33.3440   24.0910 O      29092 WAT       0.0616
  29093 WAT        25.4090   33.3440   24.3410 O      29093 WAT       0.0545
  29094 WAT        25.4090   33.3440   24.5910 O      29094 WAT       0.0467
  29095 WAT        25.4090   33.5940   11.0910 O      29095 WAT       0.0632
  29096 WAT        25.4090   33.5940   11.3410 O      29096 WAT       0.1184
  29097 WAT        25.4090   33.5940   11.5910 O      29097 WAT       0.1737
  29098 WAT        25.4090   33.5940   11.8410 O      29098 WAT       0.2170
  29099 WAT        25.4090   33.5940   12.0910 O      29099 WAT       0.2408
  29100 WAT        25.4090   33.5940   12.3410 O      29100 WAT       0.2288
  29101 WAT        25.4090   33.5940   12.5910 O      29101 WAT       0.1760
  29102 WAT        25.4090   33.5940   12.8410 O      29102 WAT       0.1069
  29103 WAT        25.4090   33.5940   13.0910 O      29103 WAT       0.0515
  29104 WAT        25.4090   33.5940   14.8410 O      29104 WAT       0.0469
  29105 WAT        25.4090   33.5940   15.0910 O      29105 WAT       0.0553
  29106 WAT        25.4090   33.5940   15.3410 O      29106 WAT       0.0577
  29107 WAT        25.4090   33.5940   15.5910 O      29107 WAT       0.0581
  29108 WAT        25.4090   33.5940   15.8410 O      29108 WAT       0.0595
  29109 WAT        25.4090   33.5940   16.0910 O      29109 WAT       0.0591
  29110 WAT        25.4090   33.5940   16.3410 O      29110 WAT       0.0520
  29111 WAT        25.4090   33.5940   23.3410 O      29111 WAT       0.0521
  29112 WAT        25.4090   33.5940   23.5910 O      29112 WAT       0.0615
  29113 WAT        25.4090   33.5940   23.8410 O      29113 WAT       0.0634
  29114 WAT        25.4090   33.5940   24.0910 O      29114 WAT       0.0574
  29115 WAT        25.4090   33.5940   24.3410 O      29115 WAT       0.0477
  29116 WAT        25.4090   33.8440   11.0910 O      29116 WAT       0.0750
  29117 WAT        25.4090   33.8440   11.3410 O      29117 WAT       0.1367
  29118 WAT        25.4090   33.8440   11.5910 O      29118 WAT       0.1878
  29119 WAT        25.4090   33.8440   11.8410 O      29119 WAT       0.2107
  29120 WAT        25.4090   33.8440   12.0910 O      29120 WAT       0.2086
  29121 WAT        25.4090   33.8440   12.3410 O      29121 WAT       0.1855
  29122 WAT        25.4090   33.8440   12.5910 O      29122 WAT       0.1423
  29123 WAT        25.4090   33.8440   12.8410 O      29123 WAT       0.0903
  29124 WAT        25.4090   33.8440   13.0910 O      29124 WAT       0.0469
  29125 WAT        25.4090   33.8440   14.8410 O      29125 WAT       0.0488
  29126 WAT        25.4090   33.8440   15.0910 O      29126 WAT       0.0533
  29127 WAT        25.4090   33.8440   15.3410 O      29127 WAT       0.0542
  29128 WAT        25.4090   33.8440   15.5910 O      29128 WAT       0.0552
  29129 WAT        25.4090   33.8440   15.8410 O      29129 WAT       0.0570
  29130 WAT        25.4090   33.8440   16.0910 O      29130 WAT       0.0554
  29131 WAT        25.4090   33.8440   16.3410 O      29131 WAT       0.0470
  29132 WAT        25.4090   33.8440   23.3410 O      29132 WAT       0.0527
  29133 WAT        25.4090   33.8440   23.5910 O      29133 WAT       0.0583
  29134 WAT        25.4090   33.8440   23.8410 O      29134 WAT       0.0560
  29135 WAT        25.4090   33.8440   24.0910 O      29135 WAT       0.0471
  29136 WAT        25.4090   34.0940   11.0910 O      29136 WAT       0.0610
  29137 WAT        25.4090   34.0940   11.3410 O      29137 WAT       0.1110
  29138 WAT        25.4090   34.0940   11.5910 O      29138 WAT       0.1487
  29139 WAT        25.4090   34.0940   11.8410 O      29139 WAT       0.1567
  29140 WAT        25.4090   34.0940   12.0910 O      29140 WAT       0.1408
  29141 WAT        25.4090   34.0940   12.3410 O      29141 WAT       0.1146
  29142 WAT        25.4090   34.0940   12.5910 O      29142 WAT       0.0846
  29143 WAT        25.4090   34.0940   12.8410 O      29143 WAT       0.0547
  29144 WAT        25.4090   34.0940   15.0910 O      29144 WAT       0.0464
  29145 WAT        25.4090   34.0940   15.3410 O      29145 WAT       0.0470
  29146 WAT        25.4090   34.0940   15.5910 O      29146 WAT       0.0485
  29147 WAT        25.4090   34.0940   15.8410 O      29147 WAT       0.0497
  29148 WAT        25.4090   34.0940   16.0910 O      29148 WAT       0.0465
  29149 WAT        25.4090   34.0940   23.3410 O      29149 WAT       0.0480
  29150 WAT        25.4090   34.0940   23.5910 O      29150 WAT       0.0491
  29151 WAT        25.4090   34.3440   11.3410 O      29151 WAT       0.0628
  29152 WAT        25.4090   34.3440   11.5910 O      29152 WAT       0.0845
  29153 WAT        25.4090   34.3440   11.8410 O      29153 WAT       0.0872
  29154 WAT        25.4090   34.3440   12.0910 O      29154 WAT       0.0738
  29155 WAT        25.4090   34.3440   12.3410 O      29155 WAT       0.0549
  29156 WAT        25.6590    9.3440   24.3410 O      29156 WAT       0.0450
  29157 WAT        25.6590    9.5940   21.3410 O      29157 WAT       0.0464
  29158 WAT        25.6590    9.5940   21.5910 O      29158 WAT       0.0494
  29159 WAT        25.6590    9.5940   21.8410 O      29159 WAT       0.0499
  29160 WAT        25.6590    9.5940   22.0910 O      29160 WAT       0.0477
  29161 WAT        25.6590    9.5940   24.3410 O      29161 WAT       0.0456
  29162 WAT        25.6590    9.5940   24.5910 O      29162 WAT       0.0468
  29163 WAT        25.6590    9.5940   24.8410 O      29163 WAT       0.0484
  29164 WAT        25.6590    9.5940   25.0910 O      29164 WAT       0.0498
  29165 WAT        25.6590    9.5940   25.3410 O      29165 WAT       0.0489
  29166 WAT        25.6590    9.8440   21.3410 O      29166 WAT       0.0484
  29167 WAT        25.6590    9.8440   21.5910 O      29167 WAT       0.0520
  29168 WAT        25.6590    9.8440   21.8410 O      29168 WAT       0.0525
  29169 WAT        25.6590    9.8440   22.0910 O      29169 WAT       0.0495
  29170 WAT        25.6590    9.8440   24.8410 O      29170 WAT       0.0463
  29171 WAT        25.6590    9.8440   25.0910 O      29171 WAT       0.0511
  29172 WAT        25.6590    9.8440   25.3410 O      29172 WAT       0.0529
  29173 WAT        25.6590    9.8440   25.5910 O      29173 WAT       0.0498
  29174 WAT        25.6590   10.0940   21.3410 O      29174 WAT       0.0489
  29175 WAT        25.6590   10.0940   21.5910 O      29175 WAT       0.0524
  29176 WAT        25.6590   10.0940   21.8410 O      29176 WAT       0.0522
  29177 WAT        25.6590   10.0940   22.0910 O      29177 WAT       0.0482
  29178 WAT        25.6590   10.0940   25.3410 O      29178 WAT       0.0482
  29179 WAT        25.6590   10.0940   25.5910 O      29179 WAT       0.0473
  29180 WAT        25.6590   10.3440   21.3410 O      29180 WAT       0.0485
  29181 WAT        25.6590   10.3440   21.5910 O      29181 WAT       0.0511
  29182 WAT        25.6590   10.3440   21.8410 O      29182 WAT       0.0495
  29183 WAT        25.6590   10.5940   21.3410 O      29183 WAT       0.0473
  29184 WAT        25.6590   10.5940   21.5910 O      29184 WAT       0.0482
  29185 WAT        25.6590   10.8440   21.3410 O      29185 WAT       0.0452
  29186 WAT        25.6590   11.5940   20.5910 O      29186 WAT       0.0454
  29187 WAT        25.6590   11.5940   20.8410 O      29187 WAT       0.0455
  29188 WAT        25.6590   11.8440   20.5910 O      29188 WAT       0.0481
  29189 WAT        25.6590   11.8440   20.8410 O      29189 WAT       0.0457
  29190 WAT        25.6590   11.8440   27.3410 O      29190 WAT       0.0519
  29191 WAT        25.6590   11.8440   27.5910 O      29191 WAT       0.0562
  29192 WAT        25.6590   11.8440   27.8410 O      29192 WAT       0.0500
  29193 WAT        25.6590   12.0940   20.3410 O      29193 WAT       0.0462
  29194 WAT        25.6590   12.0940   20.5910 O      29194 WAT       0.0486
  29195 WAT        25.6590   12.0940   27.0910 O      29195 WAT       0.0495
  29196 WAT        25.6590   12.0940   27.3410 O      29196 WAT       0.0636
  29197 WAT        25.6590   12.0940   27.5910 O      29197 WAT       0.0675
  29198 WAT        25.6590   12.0940   27.8410 O      29198 WAT       0.0595
  29199 WAT        25.6590   12.3440   20.3410 O      29199 WAT       0.0452
  29200 WAT        25.6590   12.3440   20.5910 O      29200 WAT       0.0465
  29201 WAT        25.6590   12.3440   27.0910 O      29201 WAT       0.0550
  29202 WAT        25.6590   12.3440   27.3410 O      29202 WAT       0.0678
  29203 WAT        25.6590   12.3440   27.5910 O      29203 WAT       0.0698
  29204 WAT        25.6590   12.3440   27.8410 O      29204 WAT       0.0604
  29205 WAT        25.6590   12.5940   27.0910 O      29205 WAT       0.0536
  29206 WAT        25.6590   12.5940   27.3410 O      29206 WAT       0.0626
  29207 WAT        25.6590   12.5940   27.5910 O      29207 WAT       0.0618
  29208 WAT        25.6590   12.5940   27.8410 O      29208 WAT       0.0522
  29209 WAT        25.6590   12.8440   27.0910 O      29209 WAT       0.0458
  29210 WAT        25.6590   12.8440   27.3410 O      29210 WAT       0.0502
  29211 WAT        25.6590   12.8440   27.5910 O      29211 WAT       0.0472
  29212 WAT        25.6590   13.8440   13.0910 O      29212 WAT       0.0474
  29213 WAT        25.6590   13.8440   13.3410 O      29213 WAT       0.0480
  29214 WAT        25.6590   14.0940   12.5910 O      29214 WAT       0.0480
  29215 WAT        25.6590   14.0940   12.8410 O      29215 WAT       0.0607
  29216 WAT        25.6590   14.0940   13.0910 O      29216 WAT       0.0637
  29217 WAT        25.6590   14.0940   13.3410 O      29217 WAT       0.0569
  29218 WAT        25.6590   14.3440   12.3410 O      29218 WAT       0.0508
  29219 WAT        25.6590   14.3440   12.5910 O      29219 WAT       0.0723
  29220 WAT        25.6590   14.3440   12.8410 O      29220 WAT       0.0840
  29221 WAT        25.6590   14.3440   13.0910 O      29221 WAT       0.0793
  29222 WAT        25.6590   14.3440   13.3410 O      29222 WAT       0.0624
  29223 WAT        25.6590   14.5940   12.3410 O      29223 WAT       0.0720
  29224 WAT        25.6590   14.5940   12.5910 O      29224 WAT       0.0977
  29225 WAT        25.6590   14.5940   12.8410 O      29225 WAT       0.1054
  29226 WAT        25.6590   14.5940   13.0910 O      29226 WAT       0.0898
  29227 WAT        25.6590   14.5940   13.3410 O      29227 WAT       0.0621
  29228 WAT        25.6590   14.8440   12.0910 O      29228 WAT       0.0543
  29229 WAT        25.6590   14.8440   12.3410 O      29229 WAT       0.0877
  29230 WAT        25.6590   14.8440   12.5910 O      29230 WAT       0.1148
  29231 WAT        25.6590   14.8440   12.8410 O      29231 WAT       0.1163
  29232 WAT        25.6590   14.8440   13.0910 O      29232 WAT       0.0906
  29233 WAT        25.6590   14.8440   13.3410 O      29233 WAT       0.0552
  29234 WAT        25.6590   15.0940   12.0910 O      29234 WAT       0.0573
  29235 WAT        25.6590   15.0940   12.3410 O      29235 WAT       0.0910
  29236 WAT        25.6590   15.0940   12.5910 O      29236 WAT       0.1151
  29237 WAT        25.6590   15.0940   12.8410 O      29237 WAT       0.1106
  29238 WAT        25.6590   15.0940   13.0910 O      29238 WAT       0.0795
  29239 WAT        25.6590   15.3440   12.0910 O      29239 WAT       0.0538
  29240 WAT        25.6590   15.3440   12.3410 O      29240 WAT       0.0812
  29241 WAT        25.6590   15.3440   12.5910 O      29241 WAT       0.0982
  29242 WAT        25.6590   15.3440   12.8410 O      29242 WAT       0.0894
  29243 WAT        25.6590   15.3440   13.0910 O      29243 WAT       0.0599
  29244 WAT        25.6590   15.3440   21.5910 O      29244 WAT       0.0529
  29245 WAT        25.6590   15.3440   21.8410 O      29245 WAT       0.0590
  29246 WAT        25.6590   15.3440   22.0910 O      29246 WAT       0.0569
  29247 WAT        25.6590   15.3440   22.3410 O      29247 WAT       0.0481
  29248 WAT        25.6590   15.5940   12.0910 O      29248 WAT       0.0487
  29249 WAT        25.6590   15.5940   12.3410 O      29249 WAT       0.0649
  29250 WAT        25.6590   15.5940   12.5910 O      29250 WAT       0.0725
  29251 WAT        25.6590   15.5940   12.8410 O      29251 WAT       0.0619
  29252 WAT        25.6590   15.5940   21.5910 O      29252 WAT       0.0627
  29253 WAT        25.6590   15.5940   21.8410 O      29253 WAT       0.0763
  29254 WAT        25.6590   15.5940   22.0910 O      29254 WAT       0.0797
  29255 WAT        25.6590   15.5940   22.3410 O      29255 WAT       0.0722
  29256 WAT        25.6590   15.5940   22.5910 O      29256 WAT       0.0584
  29257 WAT        25.6590   15.5940   26.0910 O      29257 WAT       0.0467
  29258 WAT        25.6590   15.5940   26.3410 O      29258 WAT       0.0456
  29259 WAT        25.6590   15.8440    9.8410 O      29259 WAT       0.0481
  29260 WAT        25.6590   15.8440   10.0910 O      29260 WAT       0.0559
  29261 WAT        25.6590   15.8440   10.3410 O      29261 WAT       0.0580
  29262 WAT        25.6590   15.8440   10.5910 O      29262 WAT       0.0544
  29263 WAT        25.6590   15.8440   10.8410 O      29263 WAT       0.0487
  29264 WAT        25.6590   15.8440   12.3410 O      29264 WAT       0.0484
  29265 WAT        25.6590   15.8440   12.5910 O      29265 WAT       0.0473
  29266 WAT        25.6590   15.8440   21.3410 O      29266 WAT       0.0458
  29267 WAT        25.6590   15.8440   21.5910 O      29267 WAT       0.0686
  29268 WAT        25.6590   15.8440   21.8410 O      29268 WAT       0.0878
  29269 WAT        25.6590   15.8440   22.0910 O      29269 WAT       0.0966
  29270 WAT        25.6590   15.8440   22.3410 O      29270 WAT       0.0925
  29271 WAT        25.6590   15.8440   22.5910 O      29271 WAT       0.0789
  29272 WAT        25.6590   15.8440   22.8410 O      29272 WAT       0.0619
  29273 WAT        25.6590   15.8440   23.0910 O      29273 WAT       0.0466
  29274 WAT        25.6590   15.8440   25.5910 O      29274 WAT       0.0467
  29275 WAT        25.6590   15.8440   25.8410 O      29275 WAT       0.0616
  29276 WAT        25.6590   15.8440   26.0910 O      29276 WAT       0.0751
  29277 WAT        25.6590   15.8440   26.3410 O      29277 WAT       0.0774
  29278 WAT        25.6590   15.8440   26.5910 O      29278 WAT       0.0654
  29279 WAT        25.6590   15.8440   26.8410 O      29279 WAT       0.0460
  29280 WAT        25.6590   16.0940    9.3410 O      29280 WAT       0.0489
  29281 WAT        25.6590   16.0940    9.5910 O      29281 WAT       0.0630
  29282 WAT        25.6590   16.0940    9.8410 O      29282 WAT       0.0733
  29283 WAT        25.6590   16.0940   10.0910 O      29283 WAT       0.0771
  29284 WAT        25.6590   16.0940   10.3410 O      29284 WAT       0.0731
  29285 WAT        25.6590   16.0940   10.5910 O      29285 WAT       0.0633
  29286 WAT        25.6590   16.0940   10.8410 O      29286 WAT       0.0532
  29287 WAT        25.6590   16.0940   11.0910 O      29287 WAT       0.0464
  29288 WAT        25.6590   16.0940   21.3410 O      29288 WAT       0.0456
  29289 WAT        25.6590   16.0940   21.5910 O      29289 WAT       0.0705
  29290 WAT        25.6590   16.0940   21.8410 O      29290 WAT       0.0933
  29291 WAT        25.6590   16.0940   22.0910 O      29291 WAT       0.1063
  29292 WAT        25.6590   16.0940   22.3410 O      29292 WAT       0.1058
  29293 WAT        25.6590   16.0940   22.5910 O      29293 WAT       0.0938
  29294 WAT        25.6590   16.0940   22.8410 O      29294 WAT       0.0759
  29295 WAT        25.6590   16.0940   23.0910 O      29295 WAT       0.0579
  29296 WAT        25.6590   16.0940   25.5910 O      29296 WAT       0.0553
  29297 WAT        25.6590   16.0940   25.8410 O      29297 WAT       0.0752
  29298 WAT        25.6590   16.0940   26.0910 O      29298 WAT       0.0958
  29299 WAT        25.6590   16.0940   26.3410 O      29299 WAT       0.1048
  29300 WAT        25.6590   16.0940   26.5910 O      29300 WAT       0.0950
  29301 WAT        25.6590   16.0940   26.8410 O      29301 WAT       0.0719
  29302 WAT        25.6590   16.0940   27.0910 O      29302 WAT       0.0485
  29303 WAT        25.6590   16.3440    9.0910 O      29303 WAT       0.0541
  29304 WAT        25.6590   16.3440    9.3410 O      29304 WAT       0.0684
  29305 WAT        25.6590   16.3440    9.5910 O      29305 WAT       0.0767
  29306 WAT        25.6590   16.3440    9.8410 O      29306 WAT       0.0778
  29307 WAT        25.6590   16.3440   10.0910 O      29307 WAT       0.0725
  29308 WAT        25.6590   16.3440   10.3410 O      29308 WAT       0.0618
  29309 WAT        25.6590   16.3440   10.5910 O      29309 WAT       0.0491
  29310 WAT        25.6590   16.3440   21.5910 O      29310 WAT       0.0693
  29311 WAT        25.6590   16.3440   21.8410 O      29311 WAT       0.0943
  29312 WAT        25.6590   16.3440   22.0910 O      29312 WAT       0.1100
  29313 WAT        25.6590   16.3440   22.3410 O      29313 WAT       0.1120
  29314 WAT        25.6590   16.3440   22.5910 O      29314 WAT       0.1015
  29315 WAT        25.6590   16.3440   22.8410 O      29315 WAT       0.0837
  29316 WAT        25.6590   16.3440   23.0910 O      29316 WAT       0.0644
  29317 WAT        25.6590   16.3440   23.3410 O      29317 WAT       0.0479
  29318 WAT        25.6590   16.3440   25.5910 O      29318 WAT       0.0505
  29319 WAT        25.6590   16.3440   25.8410 O      29319 WAT       0.0696
  29320 WAT        25.6590   16.3440   26.0910 O      29320 WAT       0.0930
  29321 WAT        25.6590   16.3440   26.3410 O      29321 WAT       0.1092
  29322 WAT        25.6590   16.3440   26.5910 O      29322 WAT       0.1075
  29323 WAT        25.6590   16.3440   26.8410 O      29323 WAT       0.0883
  29324 WAT        25.6590   16.3440   27.0910 O      29324 WAT       0.0637
  29325 WAT        25.6590   16.3440   27.3410 O      29325 WAT       0.0450
  29326 WAT        25.6590   16.5940    8.8410 O      29326 WAT       0.0528
  29327 WAT        25.6590   16.5940    9.0910 O      29327 WAT       0.0652
  29328 WAT        25.6590   16.5940    9.3410 O      29328 WAT       0.0696
  29329 WAT        25.6590   16.5940    9.5910 O      29329 WAT       0.0657
  29330 WAT        25.6590   16.5940    9.8410 O      29330 WAT       0.0566
  29331 WAT        25.6590   16.5940   10.0910 O      29331 WAT       0.0456
  29332 WAT        25.6590   16.5940   19.3410 O      29332 WAT       0.0450
  29333 WAT        25.6590   16.5940   21.5910 O      29333 WAT       0.0661
  29334 WAT        25.6590   16.5940   21.8410 O      29334 WAT       0.0918
  29335 WAT        25.6590   16.5940   22.0910 O      29335 WAT       0.1086
  29336 WAT        25.6590   16.5940   22.3410 O      29336 WAT       0.1115
  29337 WAT        25.6590   16.5940   22.5910 O      29337 WAT       0.1018
  29338 WAT        25.6590   16.5940   22.8410 O      29338 WAT       0.0845
  29339 WAT        25.6590   16.5940   23.0910 O      29339 WAT       0.0649
  29340 WAT        25.6590   16.5940   23.3410 O      29340 WAT       0.0476
  29341 WAT        25.6590   16.5940   25.8410 O      29341 WAT       0.0492
  29342 WAT        25.6590   16.5940   26.0910 O      29342 WAT       0.0695
  29343 WAT        25.6590   16.5940   26.3410 O      29343 WAT       0.0888
  29344 WAT        25.6590   16.5940   26.5910 O      29344 WAT       0.0961
  29345 WAT        25.6590   16.5940   26.8410 O      29345 WAT       0.0861
  29346 WAT        25.6590   16.5940   27.0910 O      29346 WAT       0.0658
  29347 WAT        25.6590   16.5940   27.3410 O      29347 WAT       0.0474
  29348 WAT        25.6590   16.8440    8.5910 O      29348 WAT       0.0484
  29349 WAT        25.6590   16.8440    8.8410 O      29349 WAT       0.0580
  29350 WAT        25.6590   16.8440    9.0910 O      29350 WAT       0.0592
  29351 WAT        25.6590   16.8440    9.3410 O      29351 WAT       0.0515
  29352 WAT        25.6590   16.8440   21.5910 O      29352 WAT       0.0613
  29353 WAT        25.6590   16.8440   21.8410 O      29353 WAT       0.0854
  29354 WAT        25.6590   16.8440   22.0910 O      29354 WAT       0.1012
  29355 WAT        25.6590   16.8440   22.3410 O      29355 WAT       0.1034
  29356 WAT        25.6590   16.8440   22.5910 O      29356 WAT       0.0937
  29357 WAT        25.6590   16.8440   22.8410 O      29357 WAT       0.0772
  29358 WAT        25.6590   16.8440   23.0910 O      29358 WAT       0.0587
  29359 WAT        25.6590   16.8440   26.3410 O      29359 WAT       0.0590
  29360 WAT        25.6590   16.8440   26.5910 O      29360 WAT       0.0705
  29361 WAT        25.6590   16.8440   26.8410 O      29361 WAT       0.0685
  29362 WAT        25.6590   16.8440   27.0910 O      29362 WAT       0.0546
  29363 WAT        25.6590   17.0940    8.5910 O      29363 WAT       0.0502
  29364 WAT        25.6590   17.0940    8.8410 O      29364 WAT       0.0502
  29365 WAT        25.6590   17.0940   21.5910 O      29365 WAT       0.0541
  29366 WAT        25.6590   17.0940   21.8410 O      29366 WAT       0.0739
  29367 WAT        25.6590   17.0940   22.0910 O      29367 WAT       0.0868
  29368 WAT        25.6590   17.0940   22.3410 O      29368 WAT       0.0875
  29369 WAT        25.6590   17.0940   22.5910 O      29369 WAT       0.0779
  29370 WAT        25.6590   17.0940   22.8410 O      29370 WAT       0.0629
  29371 WAT        25.6590   17.0940   23.0910 O      29371 WAT       0.0471
  29372 WAT        25.6590   17.0940   26.8410 O      29372 WAT       0.0461
  29373 WAT        25.6590   17.3440   21.8410 O      29373 WAT       0.0587
  29374 WAT        25.6590   17.3440   22.0910 O      29374 WAT       0.0676
  29375 WAT        25.6590   17.3440   22.3410 O      29375 WAT       0.0670
  29376 WAT        25.6590   17.3440   22.5910 O      29376 WAT       0.0580
  29377 WAT        25.6590   17.3440   22.8410 O      29377 WAT       0.0454
  29378 WAT        25.6590   17.5940   22.0910 O      29378 WAT       0.0481
  29379 WAT        25.6590   17.5940   22.3410 O      29379 WAT       0.0463
  29380 WAT        25.6590   18.5940   18.8410 O      29380 WAT       0.0505
  29381 WAT        25.6590   18.5940   19.0910 O      29381 WAT       0.0468
  29382 WAT        25.6590   18.5940   26.5910 O      29382 WAT       0.0620
  29383 WAT        25.6590   18.5940   26.8410 O      29383 WAT       0.0954
  29384 WAT        25.6590   18.5940   27.0910 O      29384 WAT       0.1020
  29385 WAT        25.6590   18.5940   27.3410 O      29385 WAT       0.0745
  29386 WAT        25.6590   18.8440    6.0910 O      29386 WAT       0.0630
  29387 WAT        25.6590   18.8440    6.3410 O      29387 WAT       0.0713
  29388 WAT        25.6590   18.8440    6.5910 O      29388 WAT       0.0594
  29389 WAT        25.6590   18.8440   18.3410 O      29389 WAT       0.0609
  29390 WAT        25.6590   18.8440   18.5910 O      29390 WAT       0.0776
  29391 WAT        25.6590   18.8440   18.8410 O      29391 WAT       0.0794
  29392 WAT        25.6590   18.8440   19.0910 O      29392 WAT       0.0660
  29393 WAT        25.6590   18.8440   26.3410 O      29393 WAT       0.0554
  29394 WAT        25.6590   18.8440   26.5910 O      29394 WAT       0.1258
  29395 WAT        25.6590   18.8440   26.8410 O      29395 WAT       0.1972
  29396 WAT        25.6590   18.8440   27.0910 O      29396 WAT       0.2086
  29397 WAT        25.6590   18.8440   27.3410 O      29397 WAT       0.1482
  29398 WAT        25.6590   18.8440   27.5910 O      29398 WAT       0.0722
  29399 WAT        25.6590   19.0940    3.3410 O      29399 WAT       0.0509
  29400 WAT        25.6590   19.0940    3.5910 O      29400 WAT       0.0525
  29401 WAT        25.6590   19.0940    3.8410 O      29401 WAT       0.0451
  29402 WAT        25.6590   19.0940    5.5910 O      29402 WAT       0.0599
  29403 WAT        25.6590   19.0940    5.8410 O      29403 WAT       0.0992
  29404 WAT        25.6590   19.0940    6.0910 O      29404 WAT       0.1334
  29405 WAT        25.6590   19.0940    6.3410 O      29405 WAT       0.1372
  29406 WAT        25.6590   19.0940    6.5910 O      29406 WAT       0.1031
  29407 WAT        25.6590   19.0940    6.8410 O      29407 WAT       0.0547
  29408 WAT        25.6590   19.0940   18.0910 O      29408 WAT       0.0705
  29409 WAT        25.6590   19.0940   18.3410 O      29409 WAT       0.1032
  29410 WAT        25.6590   19.0940   18.5910 O      29410 WAT       0.1206
  29411 WAT        25.6590   19.0940   18.8410 O      29411 WAT       0.1133
  29412 WAT        25.6590   19.0940   19.0910 O      29412 WAT       0.0859
  29413 WAT        25.6590   19.0940   19.3410 O      29413 WAT       0.0524
  29414 WAT        25.6590   19.0940   26.3410 O      29414 WAT       0.0888
  29415 WAT        25.6590   19.0940   26.5910 O      29415 WAT       0.2061
  29416 WAT        25.6590   19.0940   26.8410 O      29416 WAT       0.3216
  29417 WAT        25.6590   19.0940   27.0910 O      29417 WAT       0.3331
  29418 WAT        25.6590   19.0940   27.3410 O      29418 WAT       0.2297
  29419 WAT        25.6590   19.0940   27.5910 O      29419 WAT       0.1079
  29420 WAT        25.6590   19.3440    3.0910 O      29420 WAT       0.0503
  29421 WAT        25.6590   19.3440    3.3410 O      29421 WAT       0.0623
  29422 WAT        25.6590   19.3440    3.5910 O      29422 WAT       0.0645
  29423 WAT        25.6590   19.3440    3.8410 O      29423 WAT       0.0552
  29424 WAT        25.6590   19.3440    5.3410 O      29424 WAT       0.0648
  29425 WAT        25.6590   19.3440    5.5910 O      29425 WAT       0.1157
  29426 WAT        25.6590   19.3440    5.8410 O      29426 WAT       0.1768
  29427 WAT        25.6590   19.3440    6.0910 O      29427 WAT       0.2159
  29428 WAT        25.6590   19.3440    6.3410 O      29428 WAT       0.2005
  29429 WAT        25.6590   19.3440    6.5910 O      29429 WAT       0.1361
  29430 WAT        25.6590   19.3440    6.8410 O      29430 WAT       0.0651
  29431 WAT        25.6590   19.3440   17.8410 O      29431 WAT       0.0630
  29432 WAT        25.6590   19.3440   18.0910 O      29432 WAT       0.1079
  29433 WAT        25.6590   19.3440   18.3410 O      29433 WAT       0.1474
  29434 WAT        25.6590   19.3440   18.5910 O      29434 WAT       0.1614
  29435 WAT        25.6590   19.3440   18.8410 O      29435 WAT       0.1421
  29436 WAT        25.6590   19.3440   19.0910 O      29436 WAT       0.1003
  29437 WAT        25.6590   19.3440   19.3410 O      29437 WAT       0.0563
  29438 WAT        25.6590   19.3440   26.3410 O      29438 WAT       0.1077
  29439 WAT        25.6590   19.3440   26.5910 O      29439 WAT       0.2517
  29440 WAT        25.6590   19.3440   26.8410 O      29440 WAT       0.3884
  29441 WAT        25.6590   19.3440   27.0910 O      29441 WAT       0.3944
  29442 WAT        25.6590   19.3440   27.3410 O      29442 WAT       0.2654
  29443 WAT        25.6590   19.3440   27.5910 O      29443 WAT       0.1214
  29444 WAT        25.6590   19.5940    3.0910 O      29444 WAT       0.0523
  29445 WAT        25.6590   19.5940    3.3410 O      29445 WAT       0.0650
  29446 WAT        25.6590   19.5940    3.5910 O      29446 WAT       0.0669
  29447 WAT        25.6590   19.5940    3.8410 O      29447 WAT       0.0568
  29448 WAT        25.6590   19.5940    5.0910 O      29448 WAT       0.0537
  29449 WAT        25.6590   19.5940    5.3410 O      29449 WAT       0.0995
  29450 WAT        25.6590   19.5940    5.5910 O      29450 WAT       0.1674
  29451 WAT        25.6590   19.5940    5.8410 O      29451 WAT       0.2327
  29452 WAT        25.6590   19.5940    6.0910 O      29452 WAT       0.2547
  29453 WAT        25.6590   19.5940    6.3410 O      29453 WAT       0.2116
  29454 WAT        25.6590   19.5940    6.5910 O      29454 WAT       0.1290
  29455 WAT        25.6590   19.5940    6.8410 O      29455 WAT       0.0556
  29456 WAT        25.6590   19.5940   17.8410 O      29456 WAT       0.0831
  29457 WAT        25.6590   19.5940   18.0910 O      29457 WAT       0.1356
  29458 WAT        25.6590   19.5940   18.3410 O      29458 WAT       0.1763
  29459 WAT        25.6590   19.5940   18.5910 O      29459 WAT       0.1843
  29460 WAT        25.6590   19.5940   18.8410 O      29460 WAT       0.1549
  29461 WAT        25.6590   19.5940   19.0910 O      29461 WAT       0.1039
  29462 WAT        25.6590   19.5940   19.3410 O      29462 WAT       0.0547
  29463 WAT        25.6590   19.5940   26.3410 O      29463 WAT       0.0939
  29464 WAT        25.6590   19.5940   26.5910 O      29464 WAT       0.2203
  29465 WAT        25.6590   19.5940   26.8410 O      29465 WAT       0.3373
  29466 WAT        25.6590   19.5940   27.0910 O      29466 WAT       0.3386
  29467 WAT        25.6590   19.5940   27.3410 O      29467 WAT       0.2254
  29468 WAT        25.6590   19.5940   27.5910 O      29468 WAT       0.1021
  29469 WAT        25.6590   19.8440    3.0910 O      29469 WAT       0.0467
  29470 WAT        25.6590   19.8440    3.3410 O      29470 WAT       0.0569
  29471 WAT        25.6590   19.8440    3.5910 O      29471 WAT       0.0574
  29472 WAT        25.6590   19.8440    3.8410 O      29472 WAT       0.0480
  29473 WAT        25.6590   19.8440    5.0910 O      29473 WAT       0.0625
  29474 WAT        25.6590   19.8440    5.3410 O      29474 WAT       0.1141
  29475 WAT        25.6590   19.8440    5.5910 O      29475 WAT       0.1778
  29476 WAT        25.6590   19.8440    5.8410 O      29476 WAT       0.2219
  29477 WAT        25.6590   19.8440    6.0910 O      29477 WAT       0.2150
  29478 WAT        25.6590   19.8440    6.3410 O      29478 WAT       0.1578
  29479 WAT        25.6590   19.8440    6.5910 O      29479 WAT       0.0853
  29480 WAT        25.6590   19.8440   17.8410 O      29480 WAT       0.0884
  29481 WAT        25.6590   19.8440   18.0910 O      29481 WAT       0.1408
  29482 WAT        25.6590   19.8440   18.3410 O      29482 WAT       0.1782
  29483 WAT        25.6590   19.8440   18.5910 O      29483 WAT       0.1812
  29484 WAT        25.6590   19.8440   18.8410 O      29484 WAT       0.1480
  29485 WAT        25.6590   19.8440   19.0910 O      29485 WAT       0.0960
  29486 WAT        25.6590   19.8440   19.3410 O      29486 WAT       0.0484
  29487 WAT        25.6590   19.8440   26.3410 O      29487 WAT       0.0575
  29488 WAT        25.6590   19.8440   26.5910 O      29488 WAT       0.1368
  29489 WAT        25.6590   19.8440   26.8410 O      29489 WAT       0.2109
  29490 WAT        25.6590   19.8440   27.0910 O      29490 WAT       0.2138
  29491 WAT        25.6590   19.8440   27.3410 O      29491 WAT       0.1450
  29492 WAT        25.6590   19.8440   27.5910 O      29492 WAT       0.0676
  29493 WAT        25.6590   20.0940    5.0910 O      29493 WAT       0.0559
  29494 WAT        25.6590   20.0940    5.3410 O      29494 WAT       0.0966
  29495 WAT        25.6590   20.0940    5.5910 O      29495 WAT       0.1371
  29496 WAT        25.6590   20.0940    5.8410 O      29496 WAT       0.1521
  29497 WAT        25.6590   20.0940    6.0910 O      29497 WAT       0.1291
  29498 WAT        25.6590   20.0940    6.3410 O      29498 WAT       0.0824
  29499 WAT        25.6590   20.0940   17.8410 O      29499 WAT       0.0761
  29500 WAT        25.6590   20.0940   18.0910 O      29500 WAT       0.1217
  29501 WAT        25.6590   20.0940   18.3410 O      29501 WAT       0.1540
  29502 WAT        25.6590   20.0940   18.5910 O      29502 WAT       0.1557
  29503 WAT        25.6590   20.0940   18.8410 O      29503 WAT       0.1259
  29504 WAT        25.6590   20.0940   19.0910 O      29504 WAT       0.0805
  29505 WAT        25.6590   20.0940   26.5910 O      29505 WAT       0.0625
  29506 WAT        25.6590   20.0940   26.8410 O      29506 WAT       0.1016
  29507 WAT        25.6590   20.0940   27.0910 O      29507 WAT       0.1104
  29508 WAT        25.6590   20.0940   27.3410 O      29508 WAT       0.0825
  29509 WAT        25.6590   20.3440    5.3410 O      29509 WAT       0.0620
  29510 WAT        25.6590   20.3440    5.5910 O      29510 WAT       0.0776
  29511 WAT        25.6590   20.3440    5.8410 O      29511 WAT       0.0751
  29512 WAT        25.6590   20.3440    6.0910 O      29512 WAT       0.0549
  29513 WAT        25.6590   20.3440   17.8410 O      29513 WAT       0.0529
  29514 WAT        25.6590   20.3440   18.0910 O      29514 WAT       0.0876
  29515 WAT        25.6590   20.3440   18.3410 O      29515 WAT       0.1144
  29516 WAT        25.6590   20.3440   18.5910 O      29516 WAT       0.1185
  29517 WAT        25.6590   20.3440   18.8410 O      29517 WAT       0.0975
  29518 WAT        25.6590   20.3440   19.0910 O      29518 WAT       0.0635
  29519 WAT        25.6590   20.3440   26.8410 O      29519 WAT       0.0477
  29520 WAT        25.6590   20.3440   27.0910 O      29520 WAT       0.0631
  29521 WAT        25.6590   20.3440   27.3410 O      29521 WAT       0.0590
  29522 WAT        25.6590   20.5940   18.0910 O      29522 WAT       0.0531
  29523 WAT        25.6590   20.5940   18.3410 O      29523 WAT       0.0741
  29524 WAT        25.6590   20.5940   18.5910 O      29524 WAT       0.0817
  29525 WAT        25.6590   20.5940   18.8410 O      29525 WAT       0.0716
  29526 WAT        25.6590   20.5940   19.0910 O      29526 WAT       0.0503
  29527 WAT        25.6590   20.5940   27.0910 O      29527 WAT       0.0517
  29528 WAT        25.6590   20.5940   27.3410 O      29528 WAT       0.0605
  29529 WAT        25.6590   20.5940   27.5910 O      29529 WAT       0.0491
  29530 WAT        25.6590   20.8440    3.8410 O      29530 WAT       0.0450
  29531 WAT        25.6590   20.8440    4.0910 O      29531 WAT       0.0462
  29532 WAT        25.6590   20.8440   18.5910 O      29532 WAT       0.0543
  29533 WAT        25.6590   20.8440   18.8410 O      29533 WAT       0.0541
  29534 WAT        25.6590   20.8440   27.0910 O      29534 WAT       0.0490
  29535 WAT        25.6590   20.8440   27.3410 O      29535 WAT       0.0667
  29536 WAT        25.6590   20.8440   27.5910 O      29536 WAT       0.0616
  29537 WAT        25.6590   21.0940    3.3410 O      29537 WAT       0.0496
  29538 WAT        25.6590   21.0940    3.5910 O      29538 WAT       0.0644
  29539 WAT        25.6590   21.0940    3.8410 O      29539 WAT       0.0719
  29540 WAT        25.6590   21.0940    4.0910 O      29540 WAT       0.0672
  29541 WAT        25.6590   21.0940    4.3410 O      29541 WAT       0.0522
  29542 WAT        25.6590   21.0940   18.8410 O      29542 WAT       0.0463
  29543 WAT        25.6590   21.0940   19.0910 O      29543 WAT       0.0460
  29544 WAT        25.6590   21.0940   27.3410 O      29544 WAT       0.0671
  29545 WAT        25.6590   21.0940   27.5910 O      29545 WAT       0.0702
  29546 WAT        25.6590   21.0940   27.8410 O      29546 WAT       0.0497
  29547 WAT        25.6590   21.3440    3.0910 O      29547 WAT       0.0614
  29548 WAT        25.6590   21.3440    3.3410 O      29548 WAT       0.0854
  29549 WAT        25.6590   21.3440    3.5910 O      29549 WAT       0.0979
  29550 WAT        25.6590   21.3440    3.8410 O      29550 WAT       0.0932
  29551 WAT        25.6590   21.3440    4.0910 O      29551 WAT       0.0739
  29552 WAT        25.6590   21.3440    4.3410 O      29552 WAT       0.0488
  29553 WAT        25.6590   21.3440   18.8410 O      29553 WAT       0.0479
  29554 WAT        25.6590   21.3440   19.0910 O      29554 WAT       0.0570
  29555 WAT        25.6590   21.3440   19.3410 O      29555 WAT       0.0527
  29556 WAT        25.6590   21.3440   27.3410 O      29556 WAT       0.0620
  29557 WAT        25.6590   21.3440   27.5910 O      29557 WAT       0.0748
  29558 WAT        25.6590   21.3440   27.8410 O      29558 WAT       0.0609
  29559 WAT        25.6590   21.5940    2.8410 O      29559 WAT       0.0657
  29560 WAT        25.6590   21.5940    3.0910 O      29560 WAT       0.1041
  29561 WAT        25.6590   21.5940    3.3410 O      29561 WAT       0.1277
  29562 WAT        25.6590   21.5940    3.5910 O      29562 WAT       0.1225
  29563 WAT        25.6590   21.5940    3.8410 O      29563 WAT       0.0947
  29564 WAT        25.6590   21.5940    4.0910 O      29564 WAT       0.0607
  29565 WAT        25.6590   21.5940   18.8410 O      29565 WAT       0.0569
  29566 WAT        25.6590   21.5940   19.0910 O      29566 WAT       0.0772
  29567 WAT        25.6590   21.5940   19.3410 O      29567 WAT       0.0788
  29568 WAT        25.6590   21.5940   19.5910 O      29568 WAT       0.0602
  29569 WAT        25.6590   21.5940   27.3410 O      29569 WAT       0.0588
  29570 WAT        25.6590   21.5940   27.5910 O      29570 WAT       0.0839
  29571 WAT        25.6590   21.5940   27.8410 O      29571 WAT       0.0803
  29572 WAT        25.6590   21.5940   28.0910 O      29572 WAT       0.0524
  29573 WAT        25.6590   21.8440    2.5910 O      29573 WAT       0.0518
  29574 WAT        25.6590   21.8440    2.8410 O      29574 WAT       0.1014
  29575 WAT        25.6590   21.8440    3.0910 O      29575 WAT       0.1480
  29576 WAT        25.6590   21.8440    3.3410 O      29576 WAT       0.1582
  29577 WAT        25.6590   21.8440    3.5910 O      29577 WAT       0.1258
  29578 WAT        25.6590   21.8440    3.8410 O      29578 WAT       0.0774
  29579 WAT        25.6590   21.8440   18.8410 O      29579 WAT       0.0695
  29580 WAT        25.6590   21.8440   19.0910 O      29580 WAT       0.1021
  29581 WAT        25.6590   21.8440   19.3410 O      29581 WAT       0.1111
  29582 WAT        25.6590   21.8440   19.5910 O      29582 WAT       0.0898
  29583 WAT        25.6590   21.8440   19.8410 O      29583 WAT       0.0535
  29584 WAT        25.6590   21.8440   27.3410 O      29584 WAT       0.0657
  29585 WAT        25.6590   21.8440   27.5910 O      29585 WAT       0.1103
  29586 WAT        25.6590   21.8440   27.8410 O      29586 WAT       0.1221
  29587 WAT        25.6590   21.8440   28.0910 O      29587 WAT       0.0905
  29588 WAT        25.6590   21.8440   28.3410 O      29588 WAT       0.0476
  29589 WAT        25.6590   22.0940    2.5910 O      29589 WAT       0.0682
  29590 WAT        25.6590   22.0940    2.8410 O      29590 WAT       0.1272
  29591 WAT        25.6590   22.0940    3.0910 O      29591 WAT       0.1699
  29592 WAT        25.6590   22.0940    3.3410 O      29592 WAT       0.1601
  29593 WAT        25.6590   22.0940    3.5910 O      29593 WAT       0.1074
  29594 WAT        25.6590   22.0940    3.8410 O      29594 WAT       0.0526
  29595 WAT        25.6590   22.0940   18.8410 O      29595 WAT       0.0785
  29596 WAT        25.6590   22.0940   19.0910 O      29596 WAT       0.1214
  29597 WAT        25.6590   22.0940   19.3410 O      29597 WAT       0.1380
  29598 WAT        25.6590   22.0940   19.5910 O      29598 WAT       0.1164
  29599 WAT        25.6590   22.0940   19.8410 O      29599 WAT       0.0731
  29600 WAT        25.6590   22.0940   27.3410 O      29600 WAT       0.0837
  29601 WAT        25.6590   22.0940   27.5910 O      29601 WAT       0.1558
  29602 WAT        25.6590   22.0940   27.8410 O      29602 WAT       0.1879
  29603 WAT        25.6590   22.0940   28.0910 O      29603 WAT       0.1496
  29604 WAT        25.6590   22.0940   28.3410 O      29604 WAT       0.0831
  29605 WAT        25.6590   22.3440    2.5910 O      29605 WAT       0.0733
  29606 WAT        25.6590   22.3440    2.8410 O      29606 WAT       0.1281
  29607 WAT        25.6590   22.3440    3.0910 O      29607 WAT       0.1565
  29608 WAT        25.6590   22.3440    3.3410 O      29608 WAT       0.1317
  29609 WAT        25.6590   22.3440    3.5910 O      29609 WAT       0.0763
  29610 WAT        25.6590   22.3440   18.8410 O      29610 WAT       0.0772
  29611 WAT        25.6590   22.3440   19.0910 O      29611 WAT       0.1239
  29612 WAT        25.6590   22.3440   19.3410 O      29612 WAT       0.1461
  29613 WAT        25.6590   22.3440   19.5910 O      29613 WAT       0.1285
  29614 WAT        25.6590   22.3440   19.8410 O      29614 WAT       0.0851
  29615 WAT        25.6590   22.3440   27.3410 O      29615 WAT       0.0997
  29616 WAT        25.6590   22.3440   27.5910 O      29616 WAT       0.1945
  29617 WAT        25.6590   22.3440   27.8410 O      29617 WAT       0.2444
  29618 WAT        25.6590   22.3440   28.0910 O      29618 WAT       0.2015
  29619 WAT        25.6590   22.3440   28.3410 O      29619 WAT       0.1148
  29620 WAT        25.6590   22.3440   28.5910 O      29620 WAT       0.0530
  29621 WAT        25.6590   22.5940    2.5910 O      29621 WAT       0.0682
  29622 WAT        25.6590   22.5940    2.8410 O      29622 WAT       0.1090
  29623 WAT        25.6590   22.5940    3.0910 O      29623 WAT       0.1200
  29624 WAT        25.6590   22.5940    3.3410 O      29624 WAT       0.0900
  29625 WAT        25.6590   22.5940    3.5910 O      29625 WAT       0.0454
  29626 WAT        25.6590   22.5940   18.8410 O      29626 WAT       0.0647
  29627 WAT        25.6590   22.5940   19.0910 O      29627 WAT       0.1076
  29628 WAT        25.6590   22.5940   19.3410 O      29628 WAT       0.1318
  29629 WAT        25.6590   22.5940   19.5910 O      29629 WAT       0.1216
  29630 WAT        25.6590   22.5940   19.8410 O      29630 WAT       0.0854
  29631 WAT        25.6590   22.5940   20.0910 O      29631 WAT       0.0457
  29632 WAT        25.6590   22.5940   27.3410 O      29632 WAT       0.0962
  29633 WAT        25.6590   22.5940   27.5910 O      29633 WAT       0.1892
  29634 WAT        25.6590   22.5940   27.8410 O      29634 WAT       0.2410
  29635 WAT        25.6590   22.5940   28.0910 O      29635 WAT       0.2020
  29636 WAT        25.6590   22.5940   28.3410 O      29636 WAT       0.1170
  29637 WAT        25.6590   22.5940   28.5910 O      29637 WAT       0.0540
  29638 WAT        25.6590   22.8440    2.5910 O      29638 WAT       0.0641
  29639 WAT        25.6590   22.8440    2.8410 O      29639 WAT       0.0911
  29640 WAT        25.6590   22.8440    3.0910 O      29640 WAT       0.0879
  29641 WAT        25.6590   22.8440    3.3410 O      29641 WAT       0.0570
  29642 WAT        25.6590   22.8440   18.8410 O      29642 WAT       0.0472
  29643 WAT        25.6590   22.8440   19.0910 O      29643 WAT       0.0810
  29644 WAT        25.6590   22.8440   19.3410 O      29644 WAT       0.1033
  29645 WAT        25.6590   22.8440   19.5910 O      29645 WAT       0.1004
  29646 WAT        25.6590   22.8440   19.8410 O      29646 WAT       0.0754
  29647 WAT        25.6590   22.8440   27.3410 O      29647 WAT       0.0746
  29648 WAT        25.6590   22.8440   27.5910 O      29648 WAT       0.1397
  29649 WAT        25.6590   22.8440   27.8410 O      29649 WAT       0.1748
  29650 WAT        25.6590   22.8440   28.0910 O      29650 WAT       0.1462
  29651 WAT        25.6590   22.8440   28.3410 O      29651 WAT       0.0855
  29652 WAT        25.6590   23.0940    2.5910 O      29652 WAT       0.0675
  29653 WAT        25.6590   23.0940    2.8410 O      29653 WAT       0.0868
  29654 WAT        25.6590   23.0940    3.0910 O      29654 WAT       0.0741
  29655 WAT        25.6590   23.0940   19.0910 O      29655 WAT       0.0558
  29656 WAT        25.6590   23.0940   19.3410 O      29656 WAT       0.0735
  29657 WAT        25.6590   23.0940   19.5910 O      29657 WAT       0.0751
  29658 WAT        25.6590   23.0940   19.8410 O      29658 WAT       0.0606
  29659 WAT        25.6590   23.0940   27.3410 O      29659 WAT       0.0539
  29660 WAT        25.6590   23.0940   27.5910 O      29660 WAT       0.0855
  29661 WAT        25.6590   23.0940   27.8410 O      29661 WAT       0.0977
  29662 WAT        25.6590   23.0940   28.0910 O      29662 WAT       0.0786
  29663 WAT        25.6590   23.0940   28.3410 O      29663 WAT       0.0457
  29664 WAT        25.6590   23.3440    2.5910 O      29664 WAT       0.0721
  29665 WAT        25.6590   23.3440    2.8410 O      29665 WAT       0.0884
  29666 WAT        25.6590   23.3440    3.0910 O      29666 WAT       0.0709
  29667 WAT        25.6590   23.3440   19.3410 O      29667 WAT       0.0511
  29668 WAT        25.6590   23.3440   19.5910 O      29668 WAT       0.0541
  29669 WAT        25.6590   23.3440   19.8410 O      29669 WAT       0.0468
  29670 WAT        25.6590   23.3440   27.3410 O      29670 WAT       0.0453
  29671 WAT        25.6590   23.3440   27.5910 O      29671 WAT       0.0537
  29672 WAT        25.6590   23.3440   27.8410 O      29672 WAT       0.0497
  29673 WAT        25.6590   23.5940    2.5910 O      29673 WAT       0.0696
  29674 WAT        25.6590   23.5940    2.8410 O      29674 WAT       0.0837
  29675 WAT        25.6590   23.5940    3.0910 O      29675 WAT       0.0660
  29676 WAT        25.6590   23.8440    2.5910 O      29676 WAT       0.0606
  29677 WAT        25.6590   23.8440    2.8410 O      29677 WAT       0.0712
  29678 WAT        25.6590   23.8440    3.0910 O      29678 WAT       0.0556
  29679 WAT        25.6590   23.8440   23.5910 O      29679 WAT       0.0475
  29680 WAT        25.6590   23.8440   23.8410 O      29680 WAT       0.0606
  29681 WAT        25.6590   23.8440   24.0910 O      29681 WAT       0.0622
  29682 WAT        25.6590   23.8440   24.3410 O      29682 WAT       0.0532
  29683 WAT        25.6590   24.0940    2.5910 O      29683 WAT       0.0519
  29684 WAT        25.6590   24.0940    2.8410 O      29684 WAT       0.0578
  29685 WAT        25.6590   24.0940   23.5910 O      29685 WAT       0.0617
  29686 WAT        25.6590   24.0940   23.8410 O      29686 WAT       0.0846
  29687 WAT        25.6590   24.0940   24.0910 O      29687 WAT       0.0952
  29688 WAT        25.6590   24.0940   24.3410 O      29688 WAT       0.0905
  29689 WAT        25.6590   24.0940   24.5910 O      29689 WAT       0.0766
  29690 WAT        25.6590   24.0940   24.8410 O      29690 WAT       0.0618
  29691 WAT        25.6590   24.0940   25.0910 O      29691 WAT       0.0508
  29692 WAT        25.6590   24.3440    2.5910 O      29692 WAT       0.0478
  29693 WAT        25.6590   24.3440    2.8410 O      29693 WAT       0.0490
  29694 WAT        25.6590   24.3440   23.5910 O      29694 WAT       0.0578
  29695 WAT        25.6590   24.3440   23.8410 O      29695 WAT       0.0852
  29696 WAT        25.6590   24.3440   24.0910 O      29696 WAT       0.1050
  29697 WAT        25.6590   24.3440   24.3410 O      29697 WAT       0.1109
  29698 WAT        25.6590   24.3440   24.5910 O      29698 WAT       0.1053
  29699 WAT        25.6590   24.3440   24.8410 O      29699 WAT       0.0952
  29700 WAT        25.6590   24.3440   25.0910 O      29700 WAT       0.0854
  29701 WAT        25.6590   24.3440   25.3410 O      29701 WAT       0.0763
  29702 WAT        25.6590   24.3440   25.5910 O      29702 WAT       0.0654
  29703 WAT        25.6590   24.3440   25.8410 O      29703 WAT       0.0518
  29704 WAT        25.6590   24.5940    2.5910 O      29704 WAT       0.0469
  29705 WAT        25.6590   24.5940   23.8410 O      29705 WAT       0.0623
  29706 WAT        25.6590   24.5940   24.0910 O      29706 WAT       0.0839
  29707 WAT        25.6590   24.5940   24.3410 O      29707 WAT       0.0982
  29708 WAT        25.6590   24.5940   24.5910 O      29708 WAT       0.1039
  29709 WAT        25.6590   24.5940   24.8410 O      29709 WAT       0.1038
  29710 WAT        25.6590   24.5940   25.0910 O      29710 WAT       0.1000
  29711 WAT        25.6590   24.5940   25.3410 O      29711 WAT       0.0923
  29712 WAT        25.6590   24.5940   25.5910 O      29712 WAT       0.0789
  29713 WAT        25.6590   24.5940   25.8410 O      29713 WAT       0.0606
  29714 WAT        25.6590   24.8440   24.0910 O      29714 WAT       0.0502
  29715 WAT        25.6590   24.8440   24.3410 O      29715 WAT       0.0645
  29716 WAT        25.6590   24.8440   24.5910 O      29716 WAT       0.0752
  29717 WAT        25.6590   24.8440   24.8410 O      29717 WAT       0.0817
  29718 WAT        25.6590   24.8440   25.0910 O      29718 WAT       0.0832
  29719 WAT        25.6590   24.8440   25.3410 O      29719 WAT       0.0784
  29720 WAT        25.6590   24.8440   25.5910 O      29720 WAT       0.0668
  29721 WAT        25.6590   24.8440   25.8410 O      29721 WAT       0.0501
  29722 WAT        25.6590   24.8440   27.8410 O      29722 WAT       0.0483
  29723 WAT        25.6590   24.8440   28.0910 O      29723 WAT       0.0605
  29724 WAT        25.6590   24.8440   28.3410 O      29724 WAT       0.0686
  29725 WAT        25.6590   24.8440   28.5910 O      29725 WAT       0.0702
  29726 WAT        25.6590   24.8440   28.8410 O      29726 WAT       0.0649
  29727 WAT        25.6590   24.8440   29.0910 O      29727 WAT       0.0538
  29728 WAT        25.6590   25.0940   24.8410 O      29728 WAT       0.0496
  29729 WAT        25.6590   25.0940   25.0910 O      29729 WAT       0.0524
  29730 WAT        25.6590   25.0940   25.3410 O      29730 WAT       0.0503
  29731 WAT        25.6590   25.0940   27.5910 O      29731 WAT       0.0589
  29732 WAT        25.6590   25.0940   27.8410 O      29732 WAT       0.0760
  29733 WAT        25.6590   25.0940   28.0910 O      29733 WAT       0.0901
  29734 WAT        25.6590   25.0940   28.3410 O      29734 WAT       0.0966
  29735 WAT        25.6590   25.0940   28.5910 O      29735 WAT       0.0928
  29736 WAT        25.6590   25.0940   28.8410 O      29736 WAT       0.0798
  29737 WAT        25.6590   25.0940   29.0910 O      29737 WAT       0.0611
  29738 WAT        25.6590   25.3440   27.3410 O      29738 WAT       0.0586
  29739 WAT        25.6590   25.3440   27.5910 O      29739 WAT       0.0774
  29740 WAT        25.6590   25.3440   27.8410 O      29740 WAT       0.0939
  29741 WAT        25.6590   25.3440   28.0910 O      29741 WAT       0.1043
  29742 WAT        25.6590   25.3440   28.3410 O      29742 WAT       0.1048
  29743 WAT        25.6590   25.3440   28.5910 O      29743 WAT       0.0945
  29744 WAT        25.6590   25.3440   28.8410 O      29744 WAT       0.0761
  29745 WAT        25.6590   25.3440   29.0910 O      29745 WAT       0.0546
  29746 WAT        25.6590   25.5940   27.0910 O      29746 WAT       0.0482
  29747 WAT        25.6590   25.5940   27.3410 O      29747 WAT       0.0650
  29748 WAT        25.6590   25.5940   27.5910 O      29748 WAT       0.0803
  29749 WAT        25.6590   25.5940   27.8410 O      29749 WAT       0.0906
  29750 WAT        25.6590   25.5940   28.0910 O      29750 WAT       0.0936
  29751 WAT        25.6590   25.5940   28.3410 O      29751 WAT       0.0880
  29752 WAT        25.6590   25.5940   28.5910 O      29752 WAT       0.0746
  29753 WAT        25.6590   25.5940   28.8410 O      29753 WAT       0.0569
  29754 WAT        25.6590   25.8440   16.0910 O      29754 WAT       0.0531
  29755 WAT        25.6590   25.8440   16.3410 O      29755 WAT       0.0638
  29756 WAT        25.6590   25.8440   16.5910 O      29756 WAT       0.0540
  29757 WAT        25.6590   25.8440   27.0910 O      29757 WAT       0.0510
  29758 WAT        25.6590   25.8440   27.3410 O      29758 WAT       0.0626
  29759 WAT        25.6590   25.8440   27.5910 O      29759 WAT       0.0709
  29760 WAT        25.6590   25.8440   27.8410 O      29760 WAT       0.0736
  29761 WAT        25.6590   25.8440   28.0910 O      29761 WAT       0.0703
  29762 WAT        25.6590   25.8440   28.3410 O      29762 WAT       0.0617
  29763 WAT        25.6590   25.8440   28.5910 O      29763 WAT       0.0495
  29764 WAT        25.6590   26.0940   15.8410 O      29764 WAT       0.0914
  29765 WAT        25.6590   26.0940   16.0910 O      29765 WAT       0.1474
  29766 WAT        25.6590   26.0940   16.3410 O      29766 WAT       0.1615
  29767 WAT        25.6590   26.0940   16.5910 O      29767 WAT       0.1239
  29768 WAT        25.6590   26.0940   16.8410 O      29768 WAT       0.0687
  29769 WAT        25.6590   26.0940   22.5910 O      29769 WAT       0.0469
  29770 WAT        25.6590   26.0940   22.8410 O      29770 WAT       0.0552
  29771 WAT        25.6590   26.0940   23.0910 O      29771 WAT       0.0590
  29772 WAT        25.6590   26.0940   23.3410 O      29772 WAT       0.0582
  29773 WAT        25.6590   26.0940   23.5910 O      29773 WAT       0.0538
  29774 WAT        25.6590   26.0940   23.8410 O      29774 WAT       0.0482
  29775 WAT        25.6590   26.0940   27.0910 O      29775 WAT       0.0514
  29776 WAT        25.6590   26.0940   27.3410 O      29776 WAT       0.0573
  29777 WAT        25.6590   26.0940   27.5910 O      29777 WAT       0.0595
  29778 WAT        25.6590   26.0940   27.8410 O      29778 WAT       0.0569
  29779 WAT        25.6590   26.0940   28.0910 O      29779 WAT       0.0504
  29780 WAT        25.6590   26.3440   15.5910 O      29780 WAT       0.0789
  29781 WAT        25.6590   26.3440   15.8410 O      29781 WAT       0.1781
  29782 WAT        25.6590   26.3440   16.0910 O      29782 WAT       0.2668
  29783 WAT        25.6590   26.3440   16.3410 O      29783 WAT       0.2712
  29784 WAT        25.6590   26.3440   16.5910 O      29784 WAT       0.1915
  29785 WAT        25.6590   26.3440   16.8410 O      29785 WAT       0.0968
  29786 WAT        25.6590   26.3440   22.3410 O      29786 WAT       0.0554
  29787 WAT        25.6590   26.3440   22.5910 O      29787 WAT       0.0670
  29788 WAT        25.6590   26.3440   22.8410 O      29788 WAT       0.0736
  29789 WAT        25.6590   26.3440   23.0910 O      29789 WAT       0.0736
  29790 WAT        25.6590   26.3440   23.3410 O      29790 WAT       0.0682
  29791 WAT        25.6590   26.3440   23.5910 O      29791 WAT       0.0596
  29792 WAT        25.6590   26.3440   23.8410 O      29792 WAT       0.0510
  29793 WAT        25.6590   26.3440   24.0910 O      29793 WAT       0.0454
  29794 WAT        25.6590   26.3440   25.8410 O      29794 WAT       0.0470
  29795 WAT        25.6590   26.3440   26.0910 O      29795 WAT       0.0474
  29796 WAT        25.6590   26.3440   26.3410 O      29796 WAT       0.0457
  29797 WAT        25.6590   26.3440   26.8410 O      29797 WAT       0.0456
  29798 WAT        25.6590   26.3440   27.0910 O      29798 WAT       0.0484
  29799 WAT        25.6590   26.3440   27.3410 O      29799 WAT       0.0506
  29800 WAT        25.6590   26.3440   27.5910 O      29800 WAT       0.0495
  29801 WAT        25.6590   26.5940   15.5910 O      29801 WAT       0.1093
  29802 WAT        25.6590   26.5940   15.8410 O      29802 WAT       0.2295
  29803 WAT        25.6590   26.5940   16.0910 O      29803 WAT       0.3212
  29804 WAT        25.6590   26.5940   16.3410 O      29804 WAT       0.3053
  29805 WAT        25.6590   26.5940   16.5910 O      29805 WAT       0.2012
  29806 WAT        25.6590   26.5940   16.8410 O      29806 WAT       0.0943
  29807 WAT        25.6590   26.5940   19.5910 O      29807 WAT       0.0459
  29808 WAT        25.6590   26.5940   19.8410 O      29808 WAT       0.0509
  29809 WAT        25.6590   26.5940   20.0910 O      29809 WAT       0.0550
  29810 WAT        25.6590   26.5940   20.3410 O      29810 WAT       0.0567
  29811 WAT        25.6590   26.5940   20.5910 O      29811 WAT       0.0563
  29812 WAT        25.6590   26.5940   20.8410 O      29812 WAT       0.0547
  29813 WAT        25.6590   26.5940   21.0910 O      29813 WAT       0.0521
  29814 WAT        25.6590   26.5940   21.3410 O      29814 WAT       0.0490
  29815 WAT        25.6590   26.5940   21.5910 O      29815 WAT       0.0472
  29816 WAT        25.6590   26.5940   21.8410 O      29816 WAT       0.0485
  29817 WAT        25.6590   26.5940   22.0910 O      29817 WAT       0.0547
  29818 WAT        25.6590   26.5940   22.3410 O      29818 WAT       0.0644
  29819 WAT        25.6590   26.5940   22.5910 O      29819 WAT       0.0728
  29820 WAT        25.6590   26.5940   22.8410 O      29820 WAT       0.0751
  29821 WAT        25.6590   26.5940   23.0910 O      29821 WAT       0.0704
  29822 WAT        25.6590   26.5940   23.3410 O      29822 WAT       0.0611
  29823 WAT        25.6590   26.5940   23.5910 O      29823 WAT       0.0507
  29824 WAT        25.6590   26.5940   25.8410 O      29824 WAT       0.0472
  29825 WAT        25.6590   26.5940   26.0910 O      29825 WAT       0.0471
  29826 WAT        25.6590   26.8440   15.5910 O      29826 WAT       0.1020
  29827 WAT        25.6590   26.8440   15.8410 O      29827 WAT       0.1995
  29828 WAT        25.6590   26.8440   16.0910 O      29828 WAT       0.2613
  29829 WAT        25.6590   26.8440   16.3410 O      29829 WAT       0.2334
  29830 WAT        25.6590   26.8440   16.5910 O      29830 WAT       0.1450
  29831 WAT        25.6590   26.8440   16.8410 O      29831 WAT       0.0640
  29832 WAT        25.6590   26.8440   19.3410 O      29832 WAT       0.0532
  29833 WAT        25.6590   26.8440   19.5910 O      29833 WAT       0.0626
  29834 WAT        25.6590   26.8440   19.8410 O      29834 WAT       0.0726
  29835 WAT        25.6590   26.8440   20.0910 O      29835 WAT       0.0801
  29836 WAT        25.6590   26.8440   20.3410 O      29836 WAT       0.0820
  29837 WAT        25.6590   26.8440   20.5910 O      29837 WAT       0.0785
  29838 WAT        25.6590   26.8440   20.8410 O      29838 WAT       0.0719
  29839 WAT        25.6590   26.8440   21.0910 O      29839 WAT       0.0642
  29840 WAT        25.6590   26.8440   21.3410 O      29840 WAT       0.0571
  29841 WAT        25.6590   26.8440   21.5910 O      29841 WAT       0.0520
  29842 WAT        25.6590   26.8440   21.8410 O      29842 WAT       0.0501
  29843 WAT        25.6590   26.8440   22.0910 O      29843 WAT       0.0524
  29844 WAT        25.6590   26.8440   22.3410 O      29844 WAT       0.0574
  29845 WAT        25.6590   26.8440   22.5910 O      29845 WAT       0.0610
  29846 WAT        25.6590   26.8440   22.8410 O      29846 WAT       0.0594
  29847 WAT        25.6590   26.8440   23.0910 O      29847 WAT       0.0523
  29848 WAT        25.6590   27.0940   15.5910 O      29848 WAT       0.0656
  29849 WAT        25.6590   27.0940   15.8410 O      29849 WAT       0.1197
  29850 WAT        25.6590   27.0940   16.0910 O      29850 WAT       0.1468
  29851 WAT        25.6590   27.0940   16.3410 O      29851 WAT       0.1236
  29852 WAT        25.6590   27.0940   16.5910 O      29852 WAT       0.0728
  29853 WAT        25.6590   27.0940   19.0910 O      29853 WAT       0.0482
  29854 WAT        25.6590   27.0940   19.3410 O      29854 WAT       0.0594
  29855 WAT        25.6590   27.0940   19.5910 O      29855 WAT       0.0717
  29856 WAT        25.6590   27.0940   19.8410 O      29856 WAT       0.0841
  29857 WAT        25.6590   27.0940   20.0910 O      29857 WAT       0.0921
  29858 WAT        25.6590   27.0940   20.3410 O      29858 WAT       0.0913
  29859 WAT        25.6590   27.0940   20.5910 O      29859 WAT       0.0822
  29860 WAT        25.6590   27.0940   20.8410 O      29860 WAT       0.0696
  29861 WAT        25.6590   27.0940   21.0910 O      29861 WAT       0.0577
  29862 WAT        25.6590   27.0940   21.3410 O      29862 WAT       0.0485
  29863 WAT        25.6590   27.3440   15.8410 O      29863 WAT       0.0508
  29864 WAT        25.6590   27.3440   16.0910 O      29864 WAT       0.0583
  29865 WAT        25.6590   27.3440   16.3410 O      29865 WAT       0.0462
  29866 WAT        25.6590   27.3440   19.0910 O      29866 WAT       0.0456
  29867 WAT        25.6590   27.3440   19.3410 O      29867 WAT       0.0564
  29868 WAT        25.6590   27.3440   19.5910 O      29868 WAT       0.0676
  29869 WAT        25.6590   27.3440   19.8410 O      29869 WAT       0.0778
  29870 WAT        25.6590   27.3440   20.0910 O      29870 WAT       0.0823
  29871 WAT        25.6590   27.3440   20.3410 O      29871 WAT       0.0775
  29872 WAT        25.6590   27.3440   20.5910 O      29872 WAT       0.0649
  29873 WAT        25.6590   27.3440   20.8410 O      29873 WAT       0.0502
  29874 WAT        25.6590   27.5940   19.5910 O      29874 WAT       0.0519
  29875 WAT        25.6590   27.5940   19.8410 O      29875 WAT       0.0572
  29876 WAT        25.6590   27.5940   20.0910 O      29876 WAT       0.0572
  29877 WAT        25.6590   27.5940   20.3410 O      29877 WAT       0.0505
  29878 WAT        25.6590   29.0940   18.0910 O      29878 WAT       0.0503
  29879 WAT        25.6590   29.0940   18.3410 O      29879 WAT       0.0734
  29880 WAT        25.6590   29.0940   18.5910 O      29880 WAT       0.0783
  29881 WAT        25.6590   29.0940   18.8410 O      29881 WAT       0.0614
  29882 WAT        25.6590   29.3440   17.8410 O      29882 WAT       0.0501
  29883 WAT        25.6590   29.3440   18.0910 O      29883 WAT       0.0920
  29884 WAT        25.6590   29.3440   18.3410 O      29884 WAT       0.1227
  29885 WAT        25.6590   29.3440   18.5910 O      29885 WAT       0.1202
  29886 WAT        25.6590   29.3440   18.8410 O      29886 WAT       0.0872
  29887 WAT        25.6590   29.3440   19.0910 O      29887 WAT       0.0476
  29888 WAT        25.6590   29.5940   17.8410 O      29888 WAT       0.0843
  29889 WAT        25.6590   29.5940   18.0910 O      29889 WAT       0.1419
  29890 WAT        25.6590   29.5940   18.3410 O      29890 WAT       0.1725
  29891 WAT        25.6590   29.5940   18.5910 O      29891 WAT       0.1545
  29892 WAT        25.6590   29.5940   18.8410 O      29892 WAT       0.1033
  29893 WAT        25.6590   29.5940   19.0910 O      29893 WAT       0.0530
  29894 WAT        25.6590   29.5940   26.3410 O      29894 WAT       0.0454
  29895 WAT        25.6590   29.5940   26.5910 O      29895 WAT       0.0540
  29896 WAT        25.6590   29.5940   26.8410 O      29896 WAT       0.0590
  29897 WAT        25.6590   29.5940   27.0910 O      29897 WAT       0.0594
  29898 WAT        25.6590   29.5940   27.3410 O      29898 WAT       0.0548
  29899 WAT        25.6590   29.5940   27.5910 O      29899 WAT       0.0466
  29900 WAT        25.6590   29.5940   29.0910 O      29900 WAT       0.0462
  29901 WAT        25.6590   29.8440   17.5910 O      29901 WAT       0.0528
  29902 WAT        25.6590   29.8440   17.8410 O      29902 WAT       0.1182
  29903 WAT        25.6590   29.8440   18.0910 O      29903 WAT       0.1845
  29904 WAT        25.6590   29.8440   18.3410 O      29904 WAT       0.2059
  29905 WAT        25.6590   29.8440   18.5910 O      29905 WAT       0.1683
  29906 WAT        25.6590   29.8440   18.8410 O      29906 WAT       0.1036
  29907 WAT        25.6590   29.8440   19.0910 O      29907 WAT       0.0498
  29908 WAT        25.6590   29.8440   26.3410 O      29908 WAT       0.0559
  29909 WAT        25.6590   29.8440   26.5910 O      29909 WAT       0.0666
  29910 WAT        25.6590   29.8440   26.8410 O      29910 WAT       0.0732
  29911 WAT        25.6590   29.8440   27.0910 O      29911 WAT       0.0748
  29912 WAT        25.6590   29.8440   27.3410 O      29912 WAT       0.0700
  29913 WAT        25.6590   29.8440   27.5910 O      29913 WAT       0.0598
  29914 WAT        25.6590   29.8440   27.8410 O      29914 WAT       0.0483
  29915 WAT        25.6590   29.8440   29.0910 O      29915 WAT       0.0492
  29916 WAT        25.6590   29.8440   29.3410 O      29916 WAT       0.0470
  29917 WAT        25.6590   30.0940   17.5910 O      29917 WAT       0.0649
  29918 WAT        25.6590   30.0940   17.8410 O      29918 WAT       0.1382
  29919 WAT        25.6590   30.0940   18.0910 O      29919 WAT       0.2032
  29920 WAT        25.6590   30.0940   18.3410 O      29920 WAT       0.2109
  29921 WAT        25.6590   30.0940   18.5910 O      29921 WAT       0.1587
  29922 WAT        25.6590   30.0940   18.8410 O      29922 WAT       0.0900
  29923 WAT        25.6590   30.0940   26.0910 O      29923 WAT       0.0475
  29924 WAT        25.6590   30.0940   26.3410 O      29924 WAT       0.0617
  29925 WAT        25.6590   30.0940   26.5910 O      29925 WAT       0.0740
  29926 WAT        25.6590   30.0940   26.8410 O      29926 WAT       0.0826
  29927 WAT        25.6590   30.0940   27.0910 O      29927 WAT       0.0854
  29928 WAT        25.6590   30.0940   27.3410 O      29928 WAT       0.0805
  29929 WAT        25.6590   30.0940   27.5910 O      29929 WAT       0.0689
  29930 WAT        25.6590   30.0940   27.8410 O      29930 WAT       0.0548
  29931 WAT        25.6590   30.0940   29.0910 O      29931 WAT       0.0485
  29932 WAT        25.6590   30.0940   29.3410 O      29932 WAT       0.0476
  29933 WAT        25.6590   30.3440   15.0910 O      29933 WAT       0.0558
  29934 WAT        25.6590   30.3440   15.3410 O      29934 WAT       0.0613
  29935 WAT        25.6590   30.3440   15.5910 O      29935 WAT       0.0493
  29936 WAT        25.6590   30.3440   17.5910 O      29936 WAT       0.0664
  29937 WAT        25.6590   30.3440   17.8410 O      29937 WAT       0.1358
  29938 WAT        25.6590   30.3440   18.0910 O      29938 WAT       0.1909
  29939 WAT        25.6590   30.3440   18.3410 O      29939 WAT       0.1874
  29940 WAT        25.6590   30.3440   18.5910 O      29940 WAT       0.1321
  29941 WAT        25.6590   30.3440   18.8410 O      29941 WAT       0.0699
  29942 WAT        25.6590   30.3440   26.0910 O      29942 WAT       0.0470
  29943 WAT        25.6590   30.3440   26.3410 O      29943 WAT       0.0605
  29944 WAT        25.6590   30.3440   26.5910 O      29944 WAT       0.0735
  29945 WAT        25.6590   30.3440   26.8410 O      29945 WAT       0.0834
  29946 WAT        25.6590   30.3440   27.0910 O      29946 WAT       0.0871
  29947 WAT        25.6590   30.3440   27.3410 O      29947 WAT       0.0824
  29948 WAT        25.6590   30.3440   27.5910 O      29948 WAT       0.0702
  29949 WAT        25.6590   30.3440   27.8410 O      29949 WAT       0.0549
  29950 WAT        25.6590   30.3440   29.0910 O      29950 WAT       0.0459
  29951 WAT        25.6590   30.3440   29.3410 O      29951 WAT       0.0463
  29952 WAT        25.6590   30.5940   15.0910 O      29952 WAT       0.0727
  29953 WAT        25.6590   30.5940   15.3410 O      29953 WAT       0.0911
  29954 WAT        25.6590   30.5940   15.5910 O      29954 WAT       0.0811
  29955 WAT        25.6590   30.5940   15.8410 O      29955 WAT       0.0523
  29956 WAT        25.6590   30.5940   17.5910 O      29956 WAT       0.0580
  29957 WAT        25.6590   30.5940   17.8410 O      29957 WAT       0.1144
  29958 WAT        25.6590   30.5940   18.0910 O      29958 WAT       0.1554
  29959 WAT        25.6590   30.5940   18.3410 O      29959 WAT       0.1470
  29960 WAT        25.6590   30.5940   18.5910 O      29960 WAT       0.0995
  29961 WAT        25.6590   30.5940   18.8410 O      29961 WAT       0.0508
  29962 WAT        25.6590   30.5940   26.3410 O      29962 WAT       0.0536
  29963 WAT        25.6590   30.5940   26.5910 O      29963 WAT       0.0655
  29964 WAT        25.6590   30.5940   26.8410 O      29964 WAT       0.0750
  29965 WAT        25.6590   30.5940   27.0910 O      29965 WAT       0.0787
  29966 WAT        25.6590   30.5940   27.3410 O      29966 WAT       0.0744
  29967 WAT        25.6590   30.5940   27.5910 O      29967 WAT       0.0631
  29968 WAT        25.6590   30.5940   27.8410 O      29968 WAT       0.0487
  29969 WAT        25.6590   30.8440   15.0910 O      29969 WAT       0.0893
  29970 WAT        25.6590   30.8440   15.3410 O      29970 WAT       0.1250
  29971 WAT        25.6590   30.8440   15.5910 O      29971 WAT       0.1217
  29972 WAT        25.6590   30.8440   15.8410 O      29972 WAT       0.0841
  29973 WAT        25.6590   30.8440   17.8410 O      29973 WAT       0.0857
  29974 WAT        25.6590   30.8440   18.0910 O      29974 WAT       0.1140
  29975 WAT        25.6590   30.8440   18.3410 O      29975 WAT       0.1063
  29976 WAT        25.6590   30.8440   18.5910 O      29976 WAT       0.0717
  29977 WAT        25.6590   30.8440   26.5910 O      29977 WAT       0.0526
  29978 WAT        25.6590   30.8440   26.8410 O      29978 WAT       0.0602
  29979 WAT        25.6590   30.8440   27.0910 O      29979 WAT       0.0634
  29980 WAT        25.6590   30.8440   27.3410 O      29980 WAT       0.0601
  29981 WAT        25.6590   30.8440   27.5910 O      29981 WAT       0.0510
  29982 WAT        25.6590   31.0940   15.0910 O      29982 WAT       0.1007
  29983 WAT        25.6590   31.0940   15.3410 O      29983 WAT       0.1531
  29984 WAT        25.6590   31.0940   15.5910 O      29984 WAT       0.1596
  29985 WAT        25.6590   31.0940   15.8410 O      29985 WAT       0.1167
  29986 WAT        25.6590   31.0940   16.0910 O      29986 WAT       0.0629
  29987 WAT        25.6590   31.0940   17.8410 O      29987 WAT       0.0622
  29988 WAT        25.6590   31.0940   18.0910 O      29988 WAT       0.0824
  29989 WAT        25.6590   31.0940   18.3410 O      29989 WAT       0.0780
  29990 WAT        25.6590   31.0940   18.5910 O      29990 WAT       0.0548
  29991 WAT        25.6590   31.0940   27.0910 O      29991 WAT       0.0466
  29992 WAT        25.6590   31.3440   15.0910 O      29992 WAT       0.1033
  29993 WAT        25.6590   31.3440   15.3410 O      29993 WAT       0.1663
  29994 WAT        25.6590   31.3440   15.5910 O      29994 WAT       0.1818
  29995 WAT        25.6590   31.3440   15.8410 O      29995 WAT       0.1384
  29996 WAT        25.6590   31.3440   16.0910 O      29996 WAT       0.0776
  29997 WAT        25.6590   31.3440   17.8410 O      29997 WAT       0.0492
  29998 WAT        25.6590   31.3440   18.0910 O      29998 WAT       0.0663
  29999 WAT        25.6590   31.3440   18.3410 O      29999 WAT       0.0650
  30000 WAT        25.6590   31.3440   18.5910 O      30000 WAT       0.0485
  30001 WAT        25.6590   31.5940   15.0910 O      30001 WAT       0.0972
  30002 WAT        25.6590   31.5940   15.3410 O      30002 WAT       0.1615
  30003 WAT        25.6590   31.5940   15.5910 O      30003 WAT       0.1815
  30004 WAT        25.6590   31.5940   15.8410 O      30004 WAT       0.1420
  30005 WAT        25.6590   31.5940   16.0910 O      30005 WAT       0.0819
  30006 WAT        25.6590   31.5940   18.0910 O      30006 WAT       0.0612
  30007 WAT        25.6590   31.5940   18.3410 O      30007 WAT       0.0615
  30008 WAT        25.6590   31.5940   18.5910 O      30008 WAT       0.0479
  30009 WAT        25.6590   31.5940   21.0910 O      30009 WAT       0.0516
  30010 WAT        25.6590   31.5940   21.3410 O      30010 WAT       0.0509
  30011 WAT        25.6590   31.8440   15.0910 O      30011 WAT       0.0862
  30012 WAT        25.6590   31.8440   15.3410 O      30012 WAT       0.1442
  30013 WAT        25.6590   31.8440   15.5910 O      30013 WAT       0.1634
  30014 WAT        25.6590   31.8440   15.8410 O      30014 WAT       0.1295
  30015 WAT        25.6590   31.8440   16.0910 O      30015 WAT       0.0765
  30016 WAT        25.6590   31.8440   18.0910 O      30016 WAT       0.0595
  30017 WAT        25.6590   31.8440   18.3410 O      30017 WAT       0.0600
  30018 WAT        25.6590   31.8440   18.5910 O      30018 WAT       0.0478
  30019 WAT        25.6590   31.8440   20.3410 O      30019 WAT       0.0482
  30020 WAT        25.6590   31.8440   20.5910 O      30020 WAT       0.0594
  30021 WAT        25.6590   31.8440   20.8410 O      30021 WAT       0.0726
  30022 WAT        25.6590   31.8440   21.0910 O      30022 WAT       0.0823
  30023 WAT        25.6590   31.8440   21.3410 O      30023 WAT       0.0803
  30024 WAT        25.6590   31.8440   21.5910 O      30024 WAT       0.0639
  30025 WAT        25.6590   31.8440   24.3410 O      30025 WAT       0.0452
  30026 WAT        25.6590   32.0940   15.0910 O      30026 WAT       0.0754
  30027 WAT        25.6590   32.0940   15.3410 O      30027 WAT       0.1237
  30028 WAT        25.6590   32.0940   15.5910 O      30028 WAT       0.1389
  30029 WAT        25.6590   32.0940   15.8410 O      30029 WAT       0.1107
  30030 WAT        25.6590   32.0940   16.0910 O      30030 WAT       0.0675
  30031 WAT        25.6590   32.0940   18.0910 O      30031 WAT       0.0562
  30032 WAT        25.6590   32.0940   18.3410 O      30032 WAT       0.0561
  30033 WAT        25.6590   32.0940   18.5910 O      30033 WAT       0.0458
  30034 WAT        25.6590   32.0940   19.8410 O      30034 WAT       0.0457
  30035 WAT        25.6590   32.0940   20.0910 O      30035 WAT       0.0564
  30036 WAT        25.6590   32.0940   20.3410 O      30036 WAT       0.0685
  30037 WAT        25.6590   32.0940   20.5910 O      30037 WAT       0.0824
  30038 WAT        25.6590   32.0940   20.8410 O      30038 WAT       0.0970
  30039 WAT        25.6590   32.0940   21.0910 O      30039 WAT       0.1059
  30040 WAT        25.6590   32.0940   21.3410 O      30040 WAT       0.0999
  30041 WAT        25.6590   32.0940   21.5910 O      30041 WAT       0.0774
  30042 WAT        25.6590   32.0940   21.8410 O      30042 WAT       0.0488
  30043 WAT        25.6590   32.3440   15.0910 O      30043 WAT       0.0686
  30044 WAT        25.6590   32.3440   15.3410 O      30044 WAT       0.1074
  30045 WAT        25.6590   32.3440   15.5910 O      30045 WAT       0.1175
  30046 WAT        25.6590   32.3440   15.8410 O      30046 WAT       0.0943
  30047 WAT        25.6590   32.3440   16.0910 O      30047 WAT       0.0604
  30048 WAT        25.6590   32.3440   18.0910 O      30048 WAT       0.0511
  30049 WAT        25.6590   32.3440   18.3410 O      30049 WAT       0.0500
  30050 WAT        25.6590   32.3440   19.8410 O      30050 WAT       0.0543
  30051 WAT        25.6590   32.3440   20.0910 O      30051 WAT       0.0677
  30052 WAT        25.6590   32.3440   20.3410 O      30052 WAT       0.0814
  30053 WAT        25.6590   32.3440   20.5910 O      30053 WAT       0.0947
  30054 WAT        25.6590   32.3440   20.8410 O      30054 WAT       0.1059
  30055 WAT        25.6590   32.3440   21.0910 O      30055 WAT       0.1093
  30056 WAT        25.6590   32.3440   21.3410 O      30056 WAT       0.0979
  30057 WAT        25.6590   32.3440   21.5910 O      30057 WAT       0.0729
  30058 WAT        25.6590   32.5940   15.0910 O      30058 WAT       0.0681
  30059 WAT        25.6590   32.5940   15.3410 O      30059 WAT       0.0980
  30060 WAT        25.6590   32.5940   15.5910 O      30060 WAT       0.1026
  30061 WAT        25.6590   32.5940   15.8410 O      30061 WAT       0.0824
  30062 WAT        25.6590   32.5940   16.0910 O      30062 WAT       0.0559
  30063 WAT        25.6590   32.5940   18.0910 O      30063 WAT       0.0461
  30064 WAT        25.6590   32.5940   19.8410 O      30064 WAT       0.0548
  30065 WAT        25.6590   32.5940   20.0910 O      30065 WAT       0.0681
  30066 WAT        25.6590   32.5940   20.3410 O      30066 WAT       0.0802
  30067 WAT        25.6590   32.5940   20.5910 O      30067 WAT       0.0894
  30068 WAT        25.6590   32.5940   20.8410 O      30068 WAT       0.0937
  30069 WAT        25.6590   32.5940   21.0910 O      30069 WAT       0.0899
  30070 WAT        25.6590   32.5940   21.3410 O      30070 WAT       0.0755
  30071 WAT        25.6590   32.5940   21.5910 O      30071 WAT       0.0535
  30072 WAT        25.6590   32.8440   15.0910 O      30072 WAT       0.0734
  30073 WAT        25.6590   32.8440   15.3410 O      30073 WAT       0.0942
  30074 WAT        25.6590   32.8440   15.5910 O      30074 WAT       0.0923
  30075 WAT        25.6590   32.8440   15.8410 O      30075 WAT       0.0734
  30076 WAT        25.6590   32.8440   16.0910 O      30076 WAT       0.0523
  30077 WAT        25.6590   32.8440   19.8410 O      30077 WAT       0.0468
  30078 WAT        25.6590   32.8440   20.0910 O      30078 WAT       0.0572
  30079 WAT        25.6590   32.8440   20.3410 O      30079 WAT       0.0652
  30080 WAT        25.6590   32.8440   20.5910 O      30080 WAT       0.0690
  30081 WAT        25.6590   32.8440   20.8410 O      30081 WAT       0.0672
  30082 WAT        25.6590   32.8440   21.0910 O      30082 WAT       0.0593
  30083 WAT        25.6590   32.8440   21.3410 O      30083 WAT       0.0462
  30084 WAT        25.6590   33.0940   11.5910 O      30084 WAT       0.0456
  30085 WAT        25.6590   33.0940   11.8410 O      30085 WAT       0.0585
  30086 WAT        25.6590   33.0940   12.0910 O      30086 WAT       0.0677
  30087 WAT        25.6590   33.0940   12.3410 O      30087 WAT       0.0652
  30088 WAT        25.6590   33.0940   12.5910 O      30088 WAT       0.0489
  30089 WAT        25.6590   33.0940   14.8410 O      30089 WAT       0.0557
  30090 WAT        25.6590   33.0940   15.0910 O      30090 WAT       0.0814
  30091 WAT        25.6590   33.0940   15.3410 O      30091 WAT       0.0917
  30092 WAT        25.6590   33.0940   15.5910 O      30092 WAT       0.0830
  30093 WAT        25.6590   33.0940   15.8410 O      30093 WAT       0.0650
  30094 WAT        25.6590   33.0940   16.0910 O      30094 WAT       0.0480
  30095 WAT        25.6590   33.3440   11.0910 O      30095 WAT       0.0506
  30096 WAT        25.6590   33.3440   11.3410 O      30096 WAT       0.0838
  30097 WAT        25.6590   33.3440   11.5910 O      30097 WAT       0.1074
  30098 WAT        25.6590   33.3440   11.8410 O      30098 WAT       0.1178
  30099 WAT        25.6590   33.3440   12.0910 O      30099 WAT       0.1191
  30100 WAT        25.6590   33.3440   12.3410 O      30100 WAT       0.1081
  30101 WAT        25.6590   33.3440   12.5910 O      30101 WAT       0.0821
  30102 WAT        25.6590   33.3440   12.8410 O      30102 WAT       0.0499
  30103 WAT        25.6590   33.3440   14.8410 O      30103 WAT       0.0696
  30104 WAT        25.6590   33.3440   15.0910 O      30104 WAT       0.0872
  30105 WAT        25.6590   33.3440   15.3410 O      30105 WAT       0.0871
  30106 WAT        25.6590   33.3440   15.5910 O      30106 WAT       0.0732
  30107 WAT        25.6590   33.3440   15.8410 O      30107 WAT       0.0566
  30108 WAT        25.6590   33.5940   11.0910 O      30108 WAT       0.0928
  30109 WAT        25.6590   33.5940   11.3410 O      30109 WAT       0.1515
  30110 WAT        25.6590   33.5940   11.5910 O      30110 WAT       0.1844
  30111 WAT        25.6590   33.5940   11.8410 O      30111 WAT       0.1818
  30112 WAT        25.6590   33.5940   12.0910 O      30112 WAT       0.1609
  30113 WAT        25.6590   33.5940   12.3410 O      30113 WAT       0.1338
  30114 WAT        25.6590   33.5940   12.5910 O      30114 WAT       0.1003
  30115 WAT        25.6590   33.5940   12.8410 O      30115 WAT       0.0638
  30116 WAT        25.6590   33.5940   14.5910 O      30116 WAT       0.0574
  30117 WAT        25.6590   33.5940   14.8410 O      30117 WAT       0.0781
  30118 WAT        25.6590   33.5940   15.0910 O      30118 WAT       0.0862
  30119 WAT        25.6590   33.5940   15.3410 O      30119 WAT       0.0783
  30120 WAT        25.6590   33.5940   15.5910 O      30120 WAT       0.0627
  30121 WAT        25.6590   33.5940   15.8410 O      30121 WAT       0.0484
  30122 WAT        25.6590   33.8440   10.8410 O      30122 WAT       0.0494
  30123 WAT        25.6590   33.8440   11.0910 O      30123 WAT       0.1157
  30124 WAT        25.6590   33.8440   11.3410 O      30124 WAT       0.1901
  30125 WAT        25.6590   33.8440   11.5910 O      30125 WAT       0.2282
  30126 WAT        25.6590   33.8440   11.8410 O      30126 WAT       0.2133
  30127 WAT        25.6590   33.8440   12.0910 O      30127 WAT       0.1705
  30128 WAT        25.6590   33.8440   12.3410 O      30128 WAT       0.1276
  30129 WAT        25.6590   33.8440   12.5910 O      30129 WAT       0.0909
  30130 WAT        25.6590   33.8440   12.8410 O      30130 WAT       0.0588
  30131 WAT        25.6590   33.8440   14.5910 O      30131 WAT       0.0636
  30132 WAT        25.6590   33.8440   14.8410 O      30132 WAT       0.0760
  30133 WAT        25.6590   33.8440   15.0910 O      30133 WAT       0.0758
  30134 WAT        25.6590   33.8440   15.3410 O      30134 WAT       0.0649
  30135 WAT        25.6590   33.8440   15.5910 O      30135 WAT       0.0512
  30136 WAT        25.6590   34.0940   11.0910 O      30136 WAT       0.0983
  30137 WAT        25.6590   34.0940   11.3410 O      30137 WAT       0.1650
  30138 WAT        25.6590   34.0940   11.5910 O      30138 WAT       0.2007
  30139 WAT        25.6590   34.0940   11.8410 O      30139 WAT       0.1857
  30140 WAT        25.6590   34.0940   12.0910 O      30140 WAT       0.1409
  30141 WAT        25.6590   34.0940   12.3410 O      30141 WAT       0.0960
  30142 WAT        25.6590   34.0940   12.5910 O      30142 WAT       0.0629
  30143 WAT        25.6590   34.0940   14.5910 O      30143 WAT       0.0584
  30144 WAT        25.6590   34.0940   14.8410 O      30144 WAT       0.0636
  30145 WAT        25.6590   34.0940   15.0910 O      30145 WAT       0.0590
  30146 WAT        25.6590   34.0940   15.3410 O      30146 WAT       0.0489
  30147 WAT        25.6590   34.3440   11.0910 O      30147 WAT       0.0569
  30148 WAT        25.6590   34.3440   11.3410 O      30148 WAT       0.0989
  30149 WAT        25.6590   34.3440   11.5910 O      30149 WAT       0.1243
  30150 WAT        25.6590   34.3440   11.8410 O      30150 WAT       0.1175
  30151 WAT        25.6590   34.3440   12.0910 O      30151 WAT       0.0884
  30152 WAT        25.6590   34.3440   12.3410 O      30152 WAT       0.0569
  30153 WAT        25.6590   34.3440   14.8410 O      30153 WAT       0.0463
  30154 WAT        25.6590   34.5940   11.5910 O      30154 WAT       0.0539
  30155 WAT        25.6590   34.5940   11.8410 O      30155 WAT       0.0532
  30156 WAT        25.9090    9.5940   24.5910 O      30156 WAT       0.0453
  30157 WAT        25.9090    9.5940   24.8410 O      30157 WAT       0.0457
  30158 WAT        25.9090    9.5940   25.0910 O      30158 WAT       0.0460
  30159 WAT        25.9090    9.8440   21.8410 O      30159 WAT       0.0466
  30160 WAT        25.9090    9.8440   22.0910 O      30160 WAT       0.0462
  30161 WAT        25.9090    9.8440   24.8410 O      30161 WAT       0.0472
  30162 WAT        25.9090    9.8440   25.0910 O      30162 WAT       0.0504
  30163 WAT        25.9090    9.8440   25.3410 O      30163 WAT       0.0516
  30164 WAT        25.9090    9.8440   25.5910 O      30164 WAT       0.0487
  30165 WAT        25.9090   10.0940   21.5910 O      30165 WAT       0.0482
  30166 WAT        25.9090   10.0940   21.8410 O      30166 WAT       0.0498
  30167 WAT        25.9090   10.0940   22.0910 O      30167 WAT       0.0490
  30168 WAT        25.9090   10.0940   22.3410 O      30168 WAT       0.0462
  30169 WAT        25.9090   10.0940   25.0910 O      30169 WAT       0.0481
  30170 WAT        25.9090   10.0940   25.3410 O      30170 WAT       0.0523
  30171 WAT        25.9090   10.0940   25.5910 O      30171 WAT       0.0512
  30172 WAT        25.9090   10.3440   21.3410 O      30172 WAT       0.0464
  30173 WAT        25.9090   10.3440   21.5910 O      30173 WAT       0.0503
  30174 WAT        25.9090   10.3440   21.8410 O      30174 WAT       0.0513
  30175 WAT        25.9090   10.3440   22.0910 O      30175 WAT       0.0493
  30176 WAT        25.9090   10.3440   25.3410 O      30176 WAT       0.0451
  30177 WAT        25.9090   10.3440   25.5910 O      30177 WAT       0.0464
  30178 WAT        25.9090   10.5940   21.3410 O      30178 WAT       0.0477
  30179 WAT        25.9090   10.5940   21.5910 O      30179 WAT       0.0507
  30180 WAT        25.9090   10.5940   21.8410 O      30180 WAT       0.0503
  30181 WAT        25.9090   10.5940   22.0910 O      30181 WAT       0.0462
  30182 WAT        25.9090   10.8440   21.3410 O      30182 WAT       0.0478
  30183 WAT        25.9090   10.8440   21.5910 O      30183 WAT       0.0488
  30184 WAT        25.9090   10.8440   21.8410 O      30184 WAT       0.0461
  30185 WAT        25.9090   11.0940   21.0910 O      30185 WAT       0.0451
  30186 WAT        25.9090   11.0940   21.3410 O      30186 WAT       0.0466
  30187 WAT        25.9090   11.3440   21.0910 O      30187 WAT       0.0458
  30188 WAT        25.9090   11.5940   20.8410 O      30188 WAT       0.0468
  30189 WAT        25.9090   11.5940   21.0910 O      30189 WAT       0.0458
  30190 WAT        25.9090   11.8440   20.5910 O      30190 WAT       0.0471
  30191 WAT        25.9090   11.8440   20.8410 O      30191 WAT       0.0483
  30192 WAT        25.9090   12.0940   20.5910 O      30192 WAT       0.0487
  30193 WAT        25.9090   12.0940   20.8410 O      30193 WAT       0.0480
  30194 WAT        25.9090   12.3440   20.5910 O      30194 WAT       0.0482
  30195 WAT        25.9090   12.3440   20.8410 O      30195 WAT       0.0457
  30196 WAT        25.9090   12.3440   27.3410 O      30196 WAT       0.0459
  30197 WAT        25.9090   12.3440   27.5910 O      30197 WAT       0.0486
  30198 WAT        25.9090   12.3440   27.8410 O      30198 WAT       0.0454
  30199 WAT        25.9090   12.5940   20.5910 O      30199 WAT       0.0455
  30200 WAT        25.9090   12.5940   27.3410 O      30200 WAT       0.0476
  30201 WAT        25.9090   12.5940   27.5910 O      30201 WAT       0.0485
  30202 WAT        25.9090   13.3440   14.5910 O      30202 WAT       0.0479
  30203 WAT        25.9090   13.3440   14.8410 O      30203 WAT       0.0497
  30204 WAT        25.9090   13.3440   15.0910 O      30204 WAT       0.0501
  30205 WAT        25.9090   13.3440   15.3410 O      30205 WAT       0.0491
  30206 WAT        25.9090   13.3440   15.5910 O      30206 WAT       0.0471
  30207 WAT        25.9090   13.5940   14.3410 O      30207 WAT       0.0461
  30208 WAT        25.9090   13.5940   14.5910 O      30208 WAT       0.0473
  30209 WAT        25.9090   13.5940   14.8410 O      30209 WAT       0.0482
  30210 WAT        25.9090   13.5940   15.0910 O      30210 WAT       0.0486
  30211 WAT        25.9090   13.5940   15.3410 O      30211 WAT       0.0487
  30212 WAT        25.9090   13.5940   15.5910 O      30212 WAT       0.0483
  30213 WAT        25.9090   13.5940   15.8410 O      30213 WAT       0.0477
  30214 WAT        25.9090   13.5940   16.0910 O      30214 WAT       0.0467
  30215 WAT        25.9090   13.5940   16.3410 O      30215 WAT       0.0453
  30216 WAT        25.9090   13.8440   13.3410 O      30216 WAT       0.0476
  30217 WAT        25.9090   13.8440   13.5910 O      30217 WAT       0.0501
  30218 WAT        25.9090   13.8440   13.8410 O      30218 WAT       0.0482
  30219 WAT        25.9090   13.8440   16.3410 O      30219 WAT       0.0453
  30220 WAT        25.9090   14.0940   12.8410 O      30220 WAT       0.0461
  30221 WAT        25.9090   14.0940   13.0910 O      30221 WAT       0.0570
  30222 WAT        25.9090   14.0940   13.3410 O      30222 WAT       0.0609
  30223 WAT        25.9090   14.0940   13.5910 O      30223 WAT       0.0572
  30224 WAT        25.9090   14.0940   13.8410 O      30224 WAT       0.0486
  30225 WAT        25.9090   14.3440   12.5910 O      30225 WAT       0.0485
  30226 WAT        25.9090   14.3440   12.8410 O      30226 WAT       0.0650
  30227 WAT        25.9090   14.3440   13.0910 O      30227 WAT       0.0732
  30228 WAT        25.9090   14.3440   13.3410 O      30228 WAT       0.0700
  30229 WAT        25.9090   14.3440   13.5910 O      30229 WAT       0.0577
  30230 WAT        25.9090   14.5940   12.5910 O      30230 WAT       0.0659
  30231 WAT        25.9090   14.5940   12.8410 O      30231 WAT       0.0821
  30232 WAT        25.9090   14.5940   13.0910 O      30232 WAT       0.0836
  30233 WAT        25.9090   14.5940   13.3410 O      30233 WAT       0.0703
  30234 WAT        25.9090   14.5940   13.5910 O      30234 WAT       0.0500
  30235 WAT        25.9090   14.8440   12.3410 O      30235 WAT       0.0535
  30236 WAT        25.9090   14.8440   12.5910 O      30236 WAT       0.0774
  30237 WAT        25.9090   14.8440   12.8410 O      30237 WAT       0.0900
  30238 WAT        25.9090   14.8440   13.0910 O      30238 WAT       0.0829
  30239 WAT        25.9090   14.8440   13.3410 O      30239 WAT       0.0611
  30240 WAT        25.9090   15.0940   12.3410 O      30240 WAT       0.0556
  30241 WAT        25.9090   15.0940   12.5910 O      30241 WAT       0.0772
  30242 WAT        25.9090   15.0940   12.8410 O      30242 WAT       0.0841
  30243 WAT        25.9090   15.0940   13.0910 O      30243 WAT       0.0706
  30244 WAT        25.9090   15.0940   13.3410 O      30244 WAT       0.0458
  30245 WAT        25.9090   15.3440   12.3410 O      30245 WAT       0.0497
  30246 WAT        25.9090   15.3440   12.5910 O      30246 WAT       0.0653
  30247 WAT        25.9090   15.3440   12.8410 O      30247 WAT       0.0665
  30248 WAT        25.9090   15.3440   13.0910 O      30248 WAT       0.0512
  30249 WAT        25.9090   15.3440   21.5910 O      30249 WAT       0.0477
  30250 WAT        25.9090   15.3440   21.8410 O      30250 WAT       0.0552
  30251 WAT        25.9090   15.3440   22.0910 O      30251 WAT       0.0561
  30252 WAT        25.9090   15.3440   22.3410 O      30252 WAT       0.0503
  30253 WAT        25.9090   15.3440   24.3410 O      30253 WAT       0.0471
  30254 WAT        25.9090   15.3440   24.5910 O      30254 WAT       0.0507
  30255 WAT        25.9090   15.3440   24.8410 O      30255 WAT       0.0481
  30256 WAT        25.9090   15.5940   12.5910 O      30256 WAT       0.0477
  30257 WAT        25.9090   15.5940   21.5910 O      30257 WAT       0.0526
  30258 WAT        25.9090   15.5940   21.8410 O      30258 WAT       0.0666
  30259 WAT        25.9090   15.5940   22.0910 O      30259 WAT       0.0731
  30260 WAT        25.9090   15.5940   22.3410 O      30260 WAT       0.0699
  30261 WAT        25.9090   15.5940   22.5910 O      30261 WAT       0.0596
  30262 WAT        25.9090   15.5940   22.8410 O      30262 WAT       0.0475
  30263 WAT        25.9090   15.5940   24.3410 O      30263 WAT       0.0503
  30264 WAT        25.9090   15.5940   24.5910 O      30264 WAT       0.0517
  30265 WAT        25.9090   15.5940   24.8410 O      30265 WAT       0.0477
  30266 WAT        25.9090   15.8440   21.5910 O      30266 WAT       0.0541
  30267 WAT        25.9090   15.8440   21.8410 O      30267 WAT       0.0721
  30268 WAT        25.9090   15.8440   22.0910 O      30268 WAT       0.0830
  30269 WAT        25.9090   15.8440   22.3410 O      30269 WAT       0.0831
  30270 WAT        25.9090   15.8440   22.5910 O      30270 WAT       0.0742
  30271 WAT        25.9090   15.8440   22.8410 O      30271 WAT       0.0611
  30272 WAT        25.9090   15.8440   23.0910 O      30272 WAT       0.0484
  30273 WAT        25.9090   15.8440   24.3410 O      30273 WAT       0.0477
  30274 WAT        25.9090   15.8440   24.5910 O      30274 WAT       0.0479
  30275 WAT        25.9090   16.0940    9.5910 O      30275 WAT       0.0498
  30276 WAT        25.9090   16.0940    9.8410 O      30276 WAT       0.0561
  30277 WAT        25.9090   16.0940   10.0910 O      30277 WAT       0.0573
  30278 WAT        25.9090   16.0940   10.3410 O      30278 WAT       0.0536
  30279 WAT        25.9090   16.0940   10.5910 O      30279 WAT       0.0468
  30280 WAT        25.9090   16.0940   21.5910 O      30280 WAT       0.0522
  30281 WAT        25.9090   16.0940   21.8410 O      30281 WAT       0.0715
  30282 WAT        25.9090   16.0940   22.0910 O      30282 WAT       0.0849
  30283 WAT        25.9090   16.0940   22.3410 O      30283 WAT       0.0880
  30284 WAT        25.9090   16.0940   22.5910 O      30284 WAT       0.0812
  30285 WAT        25.9090   16.0940   22.8410 O      30285 WAT       0.0686
  30286 WAT        25.9090   16.0940   23.0910 O      30286 WAT       0.0548
  30287 WAT        25.9090   16.0940   26.0910 O      30287 WAT       0.0461
  30288 WAT        25.9090   16.0940   26.3410 O      30288 WAT       0.0486
  30289 WAT        25.9090   16.0940   26.5910 O      30289 WAT       0.0452
  30290 WAT        25.9090   16.3440    9.3410 O      30290 WAT       0.0545
  30291 WAT        25.9090   16.3440    9.5910 O      30291 WAT       0.0591
  30292 WAT        25.9090   16.3440    9.8410 O      30292 WAT       0.0575
  30293 WAT        25.9090   16.3440   10.0910 O      30293 WAT       0.0515
  30294 WAT        25.9090   16.3440   21.5910 O      30294 WAT       0.0479
  30295 WAT        25.9090   16.3440   21.8410 O      30295 WAT       0.0669
  30296 WAT        25.9090   16.3440   22.0910 O      30296 WAT       0.0811
  30297 WAT        25.9090   16.3440   22.3410 O      30297 WAT       0.0860
  30298 WAT        25.9090   16.3440   22.5910 O      30298 WAT       0.0812
  30299 WAT        25.9090   16.3440   22.8410 O      30299 WAT       0.0699
  30300 WAT        25.9090   16.3440   23.0910 O      30300 WAT       0.0564
  30301 WAT        25.9090   16.3440   26.3410 O      30301 WAT       0.0499
  30302 WAT        25.9090   16.3440   26.5910 O      30302 WAT       0.0501
  30303 WAT        25.9090   16.3440   26.8410 O      30303 WAT       0.0455
  30304 WAT        25.9090   16.5940    8.8410 O      30304 WAT       0.0467
  30305 WAT        25.9090   16.5940    9.0910 O      30305 WAT       0.0546
  30306 WAT        25.9090   16.5940    9.3410 O      30306 WAT       0.0552
  30307 WAT        25.9090   16.5940    9.5910 O      30307 WAT       0.0494
  30308 WAT        25.9090   16.5940   21.8410 O      30308 WAT       0.0608
  30309 WAT        25.9090   16.5940   22.0910 O      30309 WAT       0.0744
  30310 WAT        25.9090   16.5940   22.3410 O      30310 WAT       0.0799
  30311 WAT        25.9090   16.5940   22.5910 O      30311 WAT       0.0765
  30312 WAT        25.9090   16.5940   22.8410 O      30312 WAT       0.0668
  30313 WAT        25.9090   16.5940   23.0910 O      30313 WAT       0.0543
  30314 WAT        25.9090   16.5940   26.5910 O      30314 WAT       0.0457
  30315 WAT        25.9090   16.8440    8.5910 O      30315 WAT       0.0478
  30316 WAT        25.9090   16.8440    8.8410 O      30316 WAT       0.0542
  30317 WAT        25.9090   16.8440    9.0910 O      30317 WAT       0.0514
  30318 WAT        25.9090   16.8440   21.8410 O      30318 WAT       0.0546
  30319 WAT        25.9090   16.8440   22.0910 O      30319 WAT       0.0666
  30320 WAT        25.9090   16.8440   22.3410 O      30320 WAT       0.0714
  30321 WAT        25.9090   16.8440   22.5910 O      30321 WAT       0.0687
  30322 WAT        25.9090   16.8440   22.8410 O      30322 WAT       0.0604
  30323 WAT        25.9090   16.8440   23.0910 O      30323 WAT       0.0493
  30324 WAT        25.9090   17.0940    8.3410 O      30324 WAT       0.0468
  30325 WAT        25.9090   17.0940    8.5910 O      30325 WAT       0.0536
  30326 WAT        25.9090   17.0940    8.8410 O      30326 WAT       0.0505
  30327 WAT        25.9090   17.0940   21.8410 O      30327 WAT       0.0487
  30328 WAT        25.9090   17.0940   22.0910 O      30328 WAT       0.0582
  30329 WAT        25.9090   17.0940   22.3410 O      30329 WAT       0.0616
  30330 WAT        25.9090   17.0940   22.5910 O      30330 WAT       0.0589
  30331 WAT        25.9090   17.0940   22.8410 O      30331 WAT       0.0516
  30332 WAT        25.9090   17.3440    8.3410 O      30332 WAT       0.0483
  30333 WAT        25.9090   17.3440    8.5910 O      30333 WAT       0.0488
  30334 WAT        25.9090   17.3440   22.0910 O      30334 WAT       0.0502
  30335 WAT        25.9090   17.3440   22.3410 O      30335 WAT       0.0519
  30336 WAT        25.9090   17.3440   22.5910 O      30336 WAT       0.0484
  30337 WAT        25.9090   18.5940   26.5910 O      30337 WAT       0.0466
  30338 WAT        25.9090   18.5940   26.8410 O      30338 WAT       0.0648
  30339 WAT        25.9090   18.5940   27.0910 O      30339 WAT       0.0667
  30340 WAT        25.9090   18.5940   27.3410 O      30340 WAT       0.0502
  30341 WAT        25.9090   18.8440    5.8410 O      30341 WAT       0.0469
  30342 WAT        25.9090   18.8440    6.0910 O      30342 WAT       0.0720
  30343 WAT        25.9090   18.8440    6.3410 O      30343 WAT       0.0847
  30344 WAT        25.9090   18.8440    6.5910 O      30344 WAT       0.0732
  30345 WAT        25.9090   18.8440   26.5910 O      30345 WAT       0.0827
  30346 WAT        25.9090   18.8440   26.8410 O      30346 WAT       0.1221
  30347 WAT        25.9090   18.8440   27.0910 O      30347 WAT       0.1275
  30348 WAT        25.9090   18.8440   27.3410 O      30348 WAT       0.0942
  30349 WAT        25.9090   18.8440   27.5910 O      30349 WAT       0.0521
  30350 WAT        25.9090   19.0940    3.3410 O      30350 WAT       0.0493
  30351 WAT        25.9090   19.0940    3.5910 O      30351 WAT       0.0507
  30352 WAT        25.9090   19.0940    5.5910 O      30352 WAT       0.0629
  30353 WAT        25.9090   19.0940    5.8410 O      30353 WAT       0.1097
  30354 WAT        25.9090   19.0940    6.0910 O      30354 WAT       0.1539
  30355 WAT        25.9090   19.0940    6.3410 O      30355 WAT       0.1649
  30356 WAT        25.9090   19.0940    6.5910 O      30356 WAT       0.1290
  30357 WAT        25.9090   19.0940    6.8410 O      30357 WAT       0.0714
  30358 WAT        25.9090   19.0940   18.3410 O      30358 WAT       0.0599
  30359 WAT        25.9090   19.0940   18.5910 O      30359 WAT       0.0668
  30360 WAT        25.9090   19.0940   18.8410 O      30360 WAT       0.0593
  30361 WAT        25.9090   19.0940   26.3410 O      30361 WAT       0.0588
  30362 WAT        25.9090   19.0940   26.5910 O      30362 WAT       0.1255
  30363 WAT        25.9090   19.0940   26.8410 O      30363 WAT       0.1887
  30364 WAT        25.9090   19.0940   27.0910 O      30364 WAT       0.1958
  30365 WAT        25.9090   19.0940   27.3410 O      30365 WAT       0.1412
  30366 WAT        25.9090   19.0940   27.5910 O      30366 WAT       0.0747
  30367 WAT        25.9090   19.3440    3.0910 O      30367 WAT       0.0522
  30368 WAT        25.9090   19.3440    3.3410 O      30368 WAT       0.0656
  30369 WAT        25.9090   19.3440    3.5910 O      30369 WAT       0.0680
  30370 WAT        25.9090   19.3440    3.8410 O      30370 WAT       0.0572
  30371 WAT        25.9090   19.3440    5.3410 O      30371 WAT       0.0639
  30372 WAT        25.9090   19.3440    5.5910 O      30372 WAT       0.1200
  30373 WAT        25.9090   19.3440    5.8410 O      30373 WAT       0.1914
  30374 WAT        25.9090   19.3440    6.0910 O      30374 WAT       0.2438
  30375 WAT        25.9090   19.3440    6.3410 O      30375 WAT       0.2366
  30376 WAT        25.9090   19.3440    6.5910 O      30376 WAT       0.1681
  30377 WAT        25.9090   19.3440    6.8410 O      30377 WAT       0.0844
  30378 WAT        25.9090   19.3440   18.0910 O      30378 WAT       0.0652
  30379 WAT        25.9090   19.3440   18.3410 O      30379 WAT       0.0862
  30380 WAT        25.9090   19.3440   18.5910 O      30380 WAT       0.0907
  30381 WAT        25.9090   19.3440   18.8410 O      30381 WAT       0.0763
  30382 WAT        25.9090   19.3440   19.0910 O      30382 WAT       0.0518
  30383 WAT        25.9090   19.3440   26.3410 O      30383 WAT       0.0664
  30384 WAT        25.9090   19.3440   26.5910 O      30384 WAT       0.1467
  30385 WAT        25.9090   19.3440   26.8410 O      30385 WAT       0.2217
  30386 WAT        25.9090   19.3440   27.0910 O      30386 WAT       0.2275
  30387 WAT        25.9090   19.3440   27.3410 O      30387 WAT       0.1611
  30388 WAT        25.9090   19.3440   27.5910 O      30388 WAT       0.0830
  30389 WAT        25.9090   19.5940    3.0910 O      30389 WAT       0.0583
  30390 WAT        25.9090   19.5940    3.3410 O      30390 WAT       0.0735
  30391 WAT        25.9090   19.5940    3.5910 O      30391 WAT       0.0760
  30392 WAT        25.9090   19.5940    3.8410 O      30392 WAT       0.0637
  30393 WAT        25.9090   19.5940    5.0910 O      30393 WAT       0.0499
  30394 WAT        25.9090   19.5940    5.3410 O      30394 WAT       0.0961
  30395 WAT        25.9090   19.5940    5.5910 O      30395 WAT       0.1671
  30396 WAT        25.9090   19.5940    5.8410 O      30396 WAT       0.2411
  30397 WAT        25.9090   19.5940    6.0910 O      30397 WAT       0.2755
  30398 WAT        25.9090   19.5940    6.3410 O      30398 WAT       0.2400
  30399 WAT        25.9090   19.5940    6.5910 O      30399 WAT       0.1538
  30400 WAT        25.9090   19.5940    6.8410 O      30400 WAT       0.0700
  30401 WAT        25.9090   19.5940   17.8410 O      30401 WAT       0.0513
  30402 WAT        25.9090   19.5940   18.0910 O      30402 WAT       0.0816
  30403 WAT        25.9090   19.5940   18.3410 O      30403 WAT       0.1029
  30404 WAT        25.9090   19.5940   18.5910 O      30404 WAT       0.1039
  30405 WAT        25.9090   19.5940   18.8410 O      30405 WAT       0.0843
  30406 WAT        25.9090   19.5940   19.0910 O      30406 WAT       0.0554
  30407 WAT        25.9090   19.5940   26.3410 O      30407 WAT       0.0558
  30408 WAT        25.9090   19.5940   26.5910 O      30408 WAT       0.1264
  30409 WAT        25.9090   19.5940   26.8410 O      30409 WAT       0.1919
  30410 WAT        25.9090   19.5940   27.0910 O      30410 WAT       0.1969
  30411 WAT        25.9090   19.5940   27.3410 O      30411 WAT       0.1396
  30412 WAT        25.9090   19.5940   27.5910 O      30412 WAT       0.0720
  30413 WAT        25.9090   19.8440    3.0910 O      30413 WAT       0.0546
  30414 WAT        25.9090   19.8440    3.3410 O      30414 WAT       0.0679
  30415 WAT        25.9090   19.8440    3.5910 O      30415 WAT       0.0692
  30416 WAT        25.9090   19.8440    3.8410 O      30416 WAT       0.0572
  30417 WAT        25.9090   19.8440    5.0910 O      30417 WAT       0.0568
  30418 WAT        25.9090   19.8440    5.3410 O      30418 WAT       0.1053
  30419 WAT        25.9090   19.8440    5.5910 O      30419 WAT       0.1676
  30420 WAT        25.9090   19.8440    5.8410 O      30420 WAT       0.2161
  30421 WAT        25.9090   19.8440    6.0910 O      30421 WAT       0.2188
  30422 WAT        25.9090   19.8440    6.3410 O      30422 WAT       0.1690
  30423 WAT        25.9090   19.8440    6.5910 O      30423 WAT       0.0965
  30424 WAT        25.9090   19.8440   17.8410 O      30424 WAT       0.0546
  30425 WAT        25.9090   19.8440   18.0910 O      30425 WAT       0.0844
  30426 WAT        25.9090   19.8440   18.3410 O      30426 WAT       0.1035
  30427 WAT        25.9090   19.8440   18.5910 O      30427 WAT       0.1020
  30428 WAT        25.9090   19.8440   18.8410 O      30428 WAT       0.0813
  30429 WAT        25.9090   19.8440   19.0910 O      30429 WAT       0.0529
  30430 WAT        25.9090   19.8440   26.5910 O      30430 WAT       0.0798
  30431 WAT        25.9090   19.8440   26.8410 O      30431 WAT       0.1245
  30432 WAT        25.9090   19.8440   27.0910 O      30432 WAT       0.1318
  30433 WAT        25.9090   19.8440   27.3410 O      30433 WAT       0.0976
  30434 WAT        25.9090   19.8440   27.5910 O      30434 WAT       0.0531
  30435 WAT        25.9090   20.0940    3.3410 O      30435 WAT       0.0528
  30436 WAT        25.9090   20.0940    3.5910 O      30436 WAT       0.0521
  30437 WAT        25.9090   20.0940    5.0910 O      30437 WAT       0.0476
  30438 WAT        25.9090   20.0940    5.3410 O      30438 WAT       0.0833
  30439 WAT        25.9090   20.0940    5.5910 O      30439 WAT       0.1202
  30440 WAT        25.9090   20.0940    5.8410 O      30440 WAT       0.1372
  30441 WAT        25.9090   20.0940    6.0910 O      30441 WAT       0.1215
  30442 WAT        25.9090   20.0940    6.3410 O      30442 WAT       0.0819
  30443 WAT        25.9090   20.0940   17.8410 O      30443 WAT       0.0476
  30444 WAT        25.9090   20.0940   18.0910 O      30444 WAT       0.0735
  30445 WAT        25.9090   20.0940   18.3410 O      30445 WAT       0.0899
  30446 WAT        25.9090   20.0940   18.5910 O      30446 WAT       0.0886
  30447 WAT        25.9090   20.0940   18.8410 O      30447 WAT       0.0712
  30448 WAT        25.9090   20.0940   19.0910 O      30448 WAT       0.0474
  30449 WAT        25.9090   20.0940   26.8410 O      30449 WAT       0.0680
  30450 WAT        25.9090   20.0940   27.0910 O      30450 WAT       0.0805
  30451 WAT        25.9090   20.0940   27.3410 O      30451 WAT       0.0680
  30452 WAT        25.9090   20.3440    5.3410 O      30452 WAT       0.0481
  30453 WAT        25.9090   20.3440    5.5910 O      30453 WAT       0.0617
  30454 WAT        25.9090   20.3440    5.8410 O      30454 WAT       0.0616
  30455 WAT        25.9090   20.3440    6.0910 O      30455 WAT       0.0470
  30456 WAT        25.9090   20.3440   18.0910 O      30456 WAT       0.0549
  30457 WAT        25.9090   20.3440   18.3410 O      30457 WAT       0.0695
  30458 WAT        25.9090   20.3440   18.5910 O      30458 WAT       0.0711
  30459 WAT        25.9090   20.3440   18.8410 O      30459 WAT       0.0600
  30460 WAT        25.9090   20.3440   27.0910 O      30460 WAT       0.0605
  30461 WAT        25.9090   20.3440   27.3410 O      30461 WAT       0.0628
  30462 WAT        25.9090   20.3440   27.5910 O      30462 WAT       0.0473
  30463 WAT        25.9090   20.5940   18.3410 O      30463 WAT       0.0500
  30464 WAT        25.9090   20.5940   18.5910 O      30464 WAT       0.0559
  30465 WAT        25.9090   20.5940   18.8410 O      30465 WAT       0.0525
  30466 WAT        25.9090   20.5940   27.0910 O      30466 WAT       0.0592
  30467 WAT        25.9090   20.5940   27.3410 O      30467 WAT       0.0724
  30468 WAT        25.9090   20.5940   27.5910 O      30468 WAT       0.0616
  30469 WAT        25.9090   20.8440   18.5910 O      30469 WAT       0.0462
  30470 WAT        25.9090   20.8440   18.8410 O      30470 WAT       0.0507
  30471 WAT        25.9090   20.8440   19.0910 O      30471 WAT       0.0481
  30472 WAT        25.9090   20.8440   27.0910 O      30472 WAT       0.0595
  30473 WAT        25.9090   20.8440   27.3410 O      30473 WAT       0.0822
  30474 WAT        25.9090   20.8440   27.5910 O      30474 WAT       0.0775
  30475 WAT        25.9090   20.8440   27.8410 O      30475 WAT       0.0507
  30476 WAT        25.9090   21.0940   18.8410 O      30476 WAT       0.0546
  30477 WAT        25.9090   21.0940   19.0910 O      30477 WAT       0.0604
  30478 WAT        25.9090   21.0940   19.3410 O      30478 WAT       0.0546
  30479 WAT        25.9090   21.0940   27.0910 O      30479 WAT       0.0537
  30480 WAT        25.9090   21.0940   27.3410 O      30480 WAT       0.0834
  30481 WAT        25.9090   21.0940   27.5910 O      30481 WAT       0.0876
  30482 WAT        25.9090   21.0940   27.8410 O      30482 WAT       0.0632
  30483 WAT        25.9090   21.3440   18.8410 O      30483 WAT       0.0645
  30484 WAT        25.9090   21.3440   19.0910 O      30484 WAT       0.0804
  30485 WAT        25.9090   21.3440   19.3410 O      30485 WAT       0.0789
  30486 WAT        25.9090   21.3440   19.5910 O      30486 WAT       0.0600
  30487 WAT        25.9090   21.3440   27.3410 O      30487 WAT       0.0761
  30488 WAT        25.9090   21.3440   27.5910 O      30488 WAT       0.0907
  30489 WAT        25.9090   21.3440   27.8410 O      30489 WAT       0.0740
  30490 WAT        25.9090   21.5940    3.0910 O      30490 WAT       0.0508
  30491 WAT        25.9090   21.5940    3.3410 O      30491 WAT       0.0591
  30492 WAT        25.9090   21.5940    3.5910 O      30492 WAT       0.0542
  30493 WAT        25.9090   21.5940   18.5910 O      30493 WAT       0.0454
  30494 WAT        25.9090   21.5940   18.8410 O      30494 WAT       0.0799
  30495 WAT        25.9090   21.5940   19.0910 O      30495 WAT       0.1082
  30496 WAT        25.9090   21.5940   19.3410 O      30496 WAT       0.1128
  30497 WAT        25.9090   21.5940   19.5910 O      30497 WAT       0.0898
  30498 WAT        25.9090   21.5940   19.8410 O      30498 WAT       0.0540
  30499 WAT        25.9090   21.5940   27.3410 O      30499 WAT       0.0679
  30500 WAT        25.9090   21.5940   27.5910 O      30500 WAT       0.0941
  30501 WAT        25.9090   21.5940   27.8410 O      30501 WAT       0.0889
  30502 WAT        25.9090   21.5940   28.0910 O      30502 WAT       0.0593
  30503 WAT        25.9090   21.8440    2.8410 O      30503 WAT       0.0538
  30504 WAT        25.9090   21.8440    3.0910 O      30504 WAT       0.0744
  30505 WAT        25.9090   21.8440    3.3410 O      30505 WAT       0.0757
  30506 WAT        25.9090   21.8440    3.5910 O      30506 WAT       0.0571
  30507 WAT        25.9090   21.8440   18.5910 O      30507 WAT       0.0504
  30508 WAT        25.9090   21.8440   18.8410 O      30508 WAT       0.0963
  30509 WAT        25.9090   21.8440   19.0910 O      30509 WAT       0.1380
  30510 WAT        25.9090   21.8440   19.3410 O      30510 WAT       0.1500
  30511 WAT        25.9090   21.8440   19.5910 O      30511 WAT       0.1239
  30512 WAT        25.9090   21.8440   19.8410 O      30512 WAT       0.0774
  30513 WAT        25.9090   21.8440   27.3410 O      30513 WAT       0.0662
  30514 WAT        25.9090   21.8440   27.5910 O      30514 WAT       0.1065
  30515 WAT        25.9090   21.8440   27.8410 O      30515 WAT       0.1154
  30516 WAT        25.9090   21.8440   28.0910 O      30516 WAT       0.0868
  30517 WAT        25.9090   21.8440   28.3410 O      30517 WAT       0.0509
  30518 WAT        25.9090   22.0940    2.8410 O      30518 WAT       0.0699
  30519 WAT        25.9090   22.0940    3.0910 O      30519 WAT       0.0895
  30520 WAT        25.9090   22.0940    3.3410 O      30520 WAT       0.0808
  30521 WAT        25.9090   22.0940    3.5910 O      30521 WAT       0.0514
  30522 WAT        25.9090   22.0940   18.5910 O      30522 WAT       0.0524
  30523 WAT        25.9090   22.0940   18.8410 O      30523 WAT       0.1056
  30524 WAT        25.9090   22.0940   19.0910 O      30524 WAT       0.1573
  30525 WAT        25.9090   22.0940   19.3410 O      30525 WAT       0.1761
  30526 WAT        25.9090   22.0940   19.5910 O      30526 WAT       0.1500
  30527 WAT        25.9090   22.0940   19.8410 O      30527 WAT       0.0977
  30528 WAT        25.9090   22.0940   20.0910 O      30528 WAT       0.0483
  30529 WAT        25.9090   22.0940   27.3410 O      30529 WAT       0.0704
  30530 WAT        25.9090   22.0940   27.5910 O      30530 WAT       0.1257
  30531 WAT        25.9090   22.0940   27.8410 O      30531 WAT       0.1487
  30532 WAT        25.9090   22.0940   28.0910 O      30532 WAT       0.1200
  30533 WAT        25.9090   22.0940   28.3410 O      30533 WAT       0.0731
  30534 WAT        25.9090   22.3440    2.8410 O      30534 WAT       0.0731
  30535 WAT        25.9090   22.3440    3.0910 O      30535 WAT       0.0866
  30536 WAT        25.9090   22.3440    3.3410 O      30536 WAT       0.0705
  30537 WAT        25.9090   22.3440   18.5910 O      30537 WAT       0.0480
  30538 WAT        25.9090   22.3440   18.8410 O      30538 WAT       0.1005
  30539 WAT        25.9090   22.3440   19.0910 O      30539 WAT       0.1541
  30540 WAT        25.9090   22.3440   19.3410 O      30540 WAT       0.1771
  30541 WAT        25.9090   22.3440   19.5910 O      30541 WAT       0.1559
  30542 WAT        25.9090   22.3440   19.8410 O      30542 WAT       0.1062
  30543 WAT        25.9090   22.3440   20.0910 O      30543 WAT       0.0560
  30544 WAT        25.9090   22.3440   27.3410 O      30544 WAT       0.0716
  30545 WAT        25.9090   22.3440   27.5910 O      30545 WAT       0.1336
  30546 WAT        25.9090   22.3440   27.8410 O      30546 WAT       0.1648
  30547 WAT        25.9090   22.3440   28.0910 O      30547 WAT       0.1376
  30548 WAT        25.9090   22.3440   28.3410 O      30548 WAT       0.0851
  30549 WAT        25.9090   22.3440   28.5910 O      30549 WAT       0.0491
  30550 WAT        25.9090   22.5940    2.8410 O      30550 WAT       0.0646
  30551 WAT        25.9090   22.5940    3.0910 O      30551 WAT       0.0696
  30552 WAT        25.9090   22.5940    3.3410 O      30552 WAT       0.0509
  30553 WAT        25.9090   22.5940   18.8410 O      30553 WAT       0.0816
  30554 WAT        25.9090   22.5940   19.0910 O      30554 WAT       0.1285
  30555 WAT        25.9090   22.5940   19.3410 O      30555 WAT       0.1520
  30556 WAT        25.9090   22.5940   19.5910 O      30556 WAT       0.1389
  30557 WAT        25.9090   22.5940   19.8410 O      30557 WAT       0.0996
  30558 WAT        25.9090   22.5940   20.0910 O      30558 WAT       0.0562
  30559 WAT        25.9090   22.5940   27.3410 O      30559 WAT       0.0622
  30560 WAT        25.9090   22.5940   27.5910 O      30560 WAT       0.1153
  30561 WAT        25.9090   22.5940   27.8410 O      30561 WAT       0.1431
  30562 WAT        25.9090   22.5940   28.0910 O      30562 WAT       0.1209
  30563 WAT        25.9090   22.5940   28.3410 O      30563 WAT       0.0751
  30564 WAT        25.9090   22.8440    2.8410 O      30564 WAT       0.0565
  30565 WAT        25.9090   22.8440    3.0910 O      30565 WAT       0.0532
  30566 WAT        25.9090   22.8440   18.8410 O      30566 WAT       0.0577
  30567 WAT        25.9090   22.8440   19.0910 O      30567 WAT       0.0928
  30568 WAT        25.9090   22.8440   19.3410 O      30568 WAT       0.1130
  30569 WAT        25.9090   22.8440   19.5910 O      30569 WAT       0.1076
  30570 WAT        25.9090   22.8440   19.8410 O      30570 WAT       0.0817
  30571 WAT        25.9090   22.8440   20.0910 O      30571 WAT       0.0499
  30572 WAT        25.9090   22.8440   27.3410 O      30572 WAT       0.0471
  30573 WAT        25.9090   22.8440   27.5910 O      30573 WAT       0.0799
  30574 WAT        25.9090   22.8440   27.8410 O      30574 WAT       0.0954
  30575 WAT        25.9090   22.8440   28.0910 O      30575 WAT       0.0796
  30576 WAT        25.9090   22.8440   28.3410 O      30576 WAT       0.0494
  30577 WAT        25.9090   23.0940    2.5910 O      30577 WAT       0.0468
  30578 WAT        25.9090   23.0940    2.8410 O      30578 WAT       0.0578
  30579 WAT        25.9090   23.0940    3.0910 O      30579 WAT       0.0478
  30580 WAT        25.9090   23.0940   19.0910 O      30580 WAT       0.0606
  30581 WAT        25.9090   23.0940   19.3410 O      30581 WAT       0.0755
  30582 WAT        25.9090   23.0940   19.5910 O      30582 WAT       0.0750
  30583 WAT        25.9090   23.0940   19.8410 O      30583 WAT       0.0609
  30584 WAT        25.9090   23.0940   27.5910 O      30584 WAT       0.0495
  30585 WAT        25.9090   23.0940   27.8410 O      30585 WAT       0.0520
  30586 WAT        25.9090   23.3440    2.5910 O      30586 WAT       0.0560
  30587 WAT        25.9090   23.3440    2.8410 O      30587 WAT       0.0652
  30588 WAT        25.9090   23.3440    3.0910 O      30588 WAT       0.0503
  30589 WAT        25.9090   23.3440   19.3410 O      30589 WAT       0.0487
  30590 WAT        25.9090   23.3440   19.5910 O      30590 WAT       0.0500
  30591 WAT        25.9090   23.5940    2.5910 O      30591 WAT       0.0630
  30592 WAT        25.9090   23.5940    2.8410 O      30592 WAT       0.0706
  30593 WAT        25.9090   23.5940    3.0910 O      30593 WAT       0.0530
  30594 WAT        25.9090   23.5940   23.8410 O      30594 WAT       0.0498
  30595 WAT        25.9090   23.5940   24.0910 O      30595 WAT       0.0477
  30596 WAT        25.9090   23.8440    2.5910 O      30596 WAT       0.0683
  30597 WAT        25.9090   23.8440    2.8410 O      30597 WAT       0.0725
  30598 WAT        25.9090   23.8440    3.0910 O      30598 WAT       0.0529
  30599 WAT        25.9090   23.8440   23.5910 O      30599 WAT       0.0624
  30600 WAT        25.9090   23.8440   23.8410 O      30600 WAT       0.0796
  30601 WAT        25.9090   23.8440   24.0910 O      30601 WAT       0.0827
  30602 WAT        25.9090   23.8440   24.3410 O      30602 WAT       0.0721
  30603 WAT        25.9090   23.8440   24.5910 O      30603 WAT       0.0550
  30604 WAT        25.9090   24.0940    2.5910 O      30604 WAT       0.0777
  30605 WAT        25.9090   24.0940    2.8410 O      30605 WAT       0.0761
  30606 WAT        25.9090   24.0940    3.0910 O      30606 WAT       0.0526
  30607 WAT        25.9090   24.0940   23.5910 O      30607 WAT       0.0696
  30608 WAT        25.9090   24.0940   23.8410 O      30608 WAT       0.0949
  30609 WAT        25.9090   24.0940   24.0910 O      30609 WAT       0.1076
  30610 WAT        25.9090   24.0940   24.3410 O      30610 WAT       0.1039
  30611 WAT        25.9090   24.0940   24.5910 O      30611 WAT       0.0888
  30612 WAT        25.9090   24.0940   24.8410 O      30612 WAT       0.0709
  30613 WAT        25.9090   24.0940   25.0910 O      30613 WAT       0.0563
  30614 WAT        25.9090   24.0940   25.3410 O      30614 WAT       0.0460
  30615 WAT        25.9090   24.3440    2.5910 O      30615 WAT       0.0940
  30616 WAT        25.9090   24.3440    2.8410 O      30616 WAT       0.0850
  30617 WAT        25.9090   24.3440    3.0910 O      30617 WAT       0.0550
  30618 WAT        25.9090   24.3440   23.5910 O      30618 WAT       0.0572
  30619 WAT        25.9090   24.3440   23.8410 O      30619 WAT       0.0836
  30620 WAT        25.9090   24.3440   24.0910 O      30620 WAT       0.1037
  30621 WAT        25.9090   24.3440   24.3410 O      30621 WAT       0.1106
  30622 WAT        25.9090   24.3440   24.5910 O      30622 WAT       0.1054
  30623 WAT        25.9090   24.3440   24.8410 O      30623 WAT       0.0937
  30624 WAT        25.9090   24.3440   25.0910 O      30624 WAT       0.0814
  30625 WAT        25.9090   24.3440   25.3410 O      30625 WAT       0.0699
  30626 WAT        25.9090   24.3440   25.5910 O      30626 WAT       0.0581
  30627 WAT        25.9090   24.3440   25.8410 O      30627 WAT       0.0450
  30628 WAT        25.9090   24.5940    2.5910 O      30628 WAT       0.1100
  30629 WAT        25.9090   24.5940    2.8410 O      30629 WAT       0.0943
  30630 WAT        25.9090   24.5940    3.0910 O      30630 WAT       0.0578
  30631 WAT        25.9090   24.5940   23.8410 O      30631 WAT       0.0547
  30632 WAT        25.9090   24.5940   24.0910 O      30632 WAT       0.0739
  30633 WAT        25.9090   24.5940   24.3410 O      30633 WAT       0.0868
  30634 WAT        25.9090   24.5940   24.5910 O      30634 WAT       0.0915
  30635 WAT        25.9090   24.5940   24.8410 O      30635 WAT       0.0896
  30636 WAT        25.9090   24.5940   25.0910 O      30636 WAT       0.0838
  30637 WAT        25.9090   24.5940   25.3410 O      30637 WAT       0.0750
  30638 WAT        25.9090   24.5940   25.5910 O      30638 WAT       0.0627
  30639 WAT        25.9090   24.5940   25.8410 O      30639 WAT       0.0474
  30640 WAT        25.9090   24.8440    2.5910 O      30640 WAT       0.1099
  30641 WAT        25.9090   24.8440    2.8410 O      30641 WAT       0.0914
  30642 WAT        25.9090   24.8440    3.0910 O      30642 WAT       0.0538
  30643 WAT        25.9090   24.8440   18.3410 O      30643 WAT       0.0485
  30644 WAT        25.9090   24.8440   18.5910 O      30644 WAT       0.0495
  30645 WAT        25.9090   24.8440   24.3410 O      30645 WAT       0.0513
  30646 WAT        25.9090   24.8440   24.5910 O      30646 WAT       0.0594
  30647 WAT        25.9090   24.8440   24.8410 O      30647 WAT       0.0633
  30648 WAT        25.9090   24.8440   25.0910 O      30648 WAT       0.0630
  30649 WAT        25.9090   24.8440   25.3410 O      30649 WAT       0.0581
  30650 WAT        25.9090   24.8440   25.5910 O      30650 WAT       0.0489
  30651 WAT        25.9090   24.8440   28.3410 O      30651 WAT       0.0505
  30652 WAT        25.9090   24.8440   28.5910 O      30652 WAT       0.0547
  30653 WAT        25.9090   24.8440   28.8410 O      30653 WAT       0.0533
  30654 WAT        25.9090   24.8440   29.0910 O      30654 WAT       0.0460
  30655 WAT        25.9090   25.0940    2.5910 O      30655 WAT       0.0860
  30656 WAT        25.9090   25.0940    2.8410 O      30656 WAT       0.0699
  30657 WAT        25.9090   25.0940   18.3410 O      30657 WAT       0.0486
  30658 WAT        25.9090   25.0940   18.5910 O      30658 WAT       0.0503
  30659 WAT        25.9090   25.0940   27.8410 O      30659 WAT       0.0497
  30660 WAT        25.9090   25.0940   28.0910 O      30660 WAT       0.0619
  30661 WAT        25.9090   25.0940   28.3410 O      30661 WAT       0.0697
  30662 WAT        25.9090   25.0940   28.5910 O      30662 WAT       0.0701
  30663 WAT        25.9090   25.0940   28.8410 O      30663 WAT       0.0628
  30664 WAT        25.9090   25.0940   29.0910 O      30664 WAT       0.0499
  30665 WAT        25.9090   25.3440    2.5910 O      30665 WAT       0.0499
  30666 WAT        25.9090   25.3440   18.5910 O      30666 WAT       0.0457
  30667 WAT        25.9090   25.3440   27.5910 O      30667 WAT       0.0477
  30668 WAT        25.9090   25.3440   27.8410 O      30668 WAT       0.0610
  30669 WAT        25.9090   25.3440   28.0910 O      30669 WAT       0.0712
  30670 WAT        25.9090   25.3440   28.3410 O      30670 WAT       0.0750
  30671 WAT        25.9090   25.3440   28.5910 O      30671 WAT       0.0704
  30672 WAT        25.9090   25.3440   28.8410 O      30672 WAT       0.0588
  30673 WAT        25.9090   25.5940   27.5910 O      30673 WAT       0.0503
  30674 WAT        25.9090   25.5940   27.8410 O      30674 WAT       0.0599
  30675 WAT        25.9090   25.5940   28.0910 O      30675 WAT       0.0651
  30676 WAT        25.9090   25.5940   28.3410 O      30676 WAT       0.0641
  30677 WAT        25.9090   25.5940   28.5910 O      30677 WAT       0.0566
  30678 WAT        25.9090   25.8440   16.0910 O      30678 WAT       0.0666
  30679 WAT        25.9090   25.8440   16.3410 O      30679 WAT       0.0798
  30680 WAT        25.9090   25.8440   16.5910 O      30680 WAT       0.0674
  30681 WAT        25.9090   25.8440   27.5910 O      30681 WAT       0.0469
  30682 WAT        25.9090   25.8440   27.8410 O      30682 WAT       0.0515
  30683 WAT        25.9090   25.8440   28.0910 O      30683 WAT       0.0521
  30684 WAT        25.9090   25.8440   28.3410 O      30684 WAT       0.0482
  30685 WAT        25.9090   26.0940   15.8410 O      30685 WAT       0.1086
  30686 WAT        25.9090   26.0940   16.0910 O      30686 WAT       0.1768
  30687 WAT        25.9090   26.0940   16.3410 O      30687 WAT       0.1940
  30688 WAT        25.9090   26.0940   16.5910 O      30688 WAT       0.1478
  30689 WAT        25.9090   26.0940   16.8410 O      30689 WAT       0.0811
  30690 WAT        25.9090   26.3440   15.5910 O      30690 WAT       0.0889
  30691 WAT        25.9090   26.3440   15.8410 O      30691 WAT       0.2046
  30692 WAT        25.9090   26.3440   16.0910 O      30692 WAT       0.3106
  30693 WAT        25.9090   26.3440   16.3410 O      30693 WAT       0.3173
  30694 WAT        25.9090   26.3440   16.5910 O      30694 WAT       0.2231
  30695 WAT        25.9090   26.3440   16.8410 O      30695 WAT       0.1113
  30696 WAT        25.9090   26.3440   23.0910 O      30696 WAT       0.0460
  30697 WAT        25.9090   26.5940   15.5910 O      30697 WAT       0.1200
  30698 WAT        25.9090   26.5940   15.8410 O      30698 WAT       0.2573
  30699 WAT        25.9090   26.5940   16.0910 O      30699 WAT       0.3659
  30700 WAT        25.9090   26.5940   16.3410 O      30700 WAT       0.3505
  30701 WAT        25.9090   26.5940   16.5910 O      30701 WAT       0.2306
  30702 WAT        25.9090   26.5940   16.8410 O      30702 WAT       0.1072
  30703 WAT        25.9090   26.5940   20.3410 O      30703 WAT       0.0453
  30704 WAT        25.9090   26.5940   20.5910 O      30704 WAT       0.0477
  30705 WAT        25.9090   26.5940   20.8410 O      30705 WAT       0.0496
  30706 WAT        25.9090   26.5940   21.0910 O      30706 WAT       0.0503
  30707 WAT        25.9090   26.5940   21.3410 O      30707 WAT       0.0496
  30708 WAT        25.9090   26.5940   21.5910 O      30708 WAT       0.0479
  30709 WAT        25.9090   26.5940   21.8410 O      30709 WAT       0.0462
  30710 WAT        25.9090   26.5940   22.0910 O      30710 WAT       0.0465
  30711 WAT        25.9090   26.5940   22.3410 O      30711 WAT       0.0495
  30712 WAT        25.9090   26.5940   22.5910 O      30712 WAT       0.0535
  30713 WAT        25.9090   26.5940   22.8410 O      30713 WAT       0.0555
  30714 WAT        25.9090   26.5940   23.0910 O      30714 WAT       0.0538
  30715 WAT        25.9090   26.5940   23.3410 O      30715 WAT       0.0490
  30716 WAT        25.9090   26.8440   15.5910 O      30716 WAT       0.1104
  30717 WAT        25.9090   26.8440   15.8410 O      30717 WAT       0.2205
  30718 WAT        25.9090   26.8440   16.0910 O      30718 WAT       0.2937
  30719 WAT        25.9090   26.8440   16.3410 O      30719 WAT       0.2648
  30720 WAT        25.9090   26.8440   16.5910 O      30720 WAT       0.1648
  30721 WAT        25.9090   26.8440   16.8410 O      30721 WAT       0.0724
  30722 WAT        25.9090   26.8440   19.3410 O      30722 WAT       0.0472
  30723 WAT        25.9090   26.8440   19.5910 O      30723 WAT       0.0518
  30724 WAT        25.9090   26.8440   19.8410 O      30724 WAT       0.0583
  30725 WAT        25.9090   26.8440   20.0910 O      30725 WAT       0.0653
  30726 WAT        25.9090   26.8440   20.3410 O      30726 WAT       0.0702
  30727 WAT        25.9090   26.8440   20.5910 O      30727 WAT       0.0723
  30728 WAT        25.9090   26.8440   20.8410 O      30728 WAT       0.0723
  30729 WAT        25.9090   26.8440   21.0910 O      30729 WAT       0.0704
  30730 WAT        25.9090   26.8440   21.3410 O      30730 WAT       0.0675
  30731 WAT        25.9090   26.8440   21.5910 O      30731 WAT       0.0637
  30732 WAT        25.9090   26.8440   21.8410 O      30732 WAT       0.0598
  30733 WAT        25.9090   26.8440   22.0910 O      30733 WAT       0.0574
  30734 WAT        25.9090   26.8440   22.3410 O      30734 WAT       0.0572
  30735 WAT        25.9090   26.8440   22.5910 O      30735 WAT       0.0573
  30736 WAT        25.9090   26.8440   22.8410 O      30736 WAT       0.0551
  30737 WAT        25.9090   26.8440   23.0910 O      30737 WAT       0.0496
  30738 WAT        25.9090   27.0940   15.5910 O      30738 WAT       0.0714
  30739 WAT        25.9090   27.0940   15.8410 O      30739 WAT       0.1325
  30740 WAT        25.9090   27.0940   16.0910 O      30740 WAT       0.1651
  30741 WAT        25.9090   27.0940   16.3410 O      30741 WAT       0.1404
  30742 WAT        25.9090   27.0940   16.5910 O      30742 WAT       0.0830
  30743 WAT        25.9090   27.0940   19.0910 O      30743 WAT       0.0452
  30744 WAT        25.9090   27.0940   19.3410 O      30744 WAT       0.0523
  30745 WAT        25.9090   27.0940   19.5910 O      30745 WAT       0.0609
  30746 WAT        25.9090   27.0940   19.8410 O      30746 WAT       0.0716
  30747 WAT        25.9090   27.0940   20.0910 O      30747 WAT       0.0815
  30748 WAT        25.9090   27.0940   20.3410 O      30748 WAT       0.0863
  30749 WAT        25.9090   27.0940   20.5910 O      30749 WAT       0.0847
  30750 WAT        25.9090   27.0940   20.8410 O      30750 WAT       0.0795
  30751 WAT        25.9090   27.0940   21.0910 O      30751 WAT       0.0736
  30752 WAT        25.9090   27.0940   21.3410 O      30752 WAT       0.0682
  30753 WAT        25.9090   27.0940   21.5910 O      30753 WAT       0.0634
  30754 WAT        25.9090   27.0940   21.8410 O      30754 WAT       0.0584
  30755 WAT        25.9090   27.0940   22.0910 O      30755 WAT       0.0540
  30756 WAT        25.9090   27.0940   22.3410 O      30756 WAT       0.0509
  30757 WAT        25.9090   27.0940   22.5910 O      30757 WAT       0.0478
  30758 WAT        25.9090   27.3440   15.8410 O      30758 WAT       0.0580
  30759 WAT        25.9090   27.3440   16.0910 O      30759 WAT       0.0673
  30760 WAT        25.9090   27.3440   16.3410 O      30760 WAT       0.0537
  30761 WAT        25.9090   27.3440   19.3410 O      30761 WAT       0.0508
  30762 WAT        25.9090   27.3440   19.5910 O      30762 WAT       0.0608
  30763 WAT        25.9090   27.3440   19.8410 O      30763 WAT       0.0723
  30764 WAT        25.9090   27.3440   20.0910 O      30764 WAT       0.0811
  30765 WAT        25.9090   27.3440   20.3410 O      30765 WAT       0.0827
  30766 WAT        25.9090   27.3440   20.5910 O      30766 WAT       0.0764
  30767 WAT        25.9090   27.3440   20.8410 O      30767 WAT       0.0666
  30768 WAT        25.9090   27.3440   21.0910 O      30768 WAT       0.0579
  30769 WAT        25.9090   27.3440   21.3410 O      30769 WAT       0.0519
  30770 WAT        25.9090   27.3440   21.5910 O      30770 WAT       0.0475
  30771 WAT        25.9090   27.5940   19.5910 O      30771 WAT       0.0507
  30772 WAT        25.9090   27.5940   19.8410 O      30772 WAT       0.0593
  30773 WAT        25.9090   27.5940   20.0910 O      30773 WAT       0.0641
  30774 WAT        25.9090   27.5940   20.3410 O      30774 WAT       0.0620
  30775 WAT        25.9090   27.5940   20.5910 O      30775 WAT       0.0536
  30776 WAT        25.9090   29.3440   18.3410 O      30776 WAT       0.0604
  30777 WAT        25.9090   29.3440   18.5910 O      30777 WAT       0.0616
  30778 WAT        25.9090   29.3440   18.8410 O      30778 WAT       0.0476
  30779 WAT        25.9090   29.5940   15.0910 O      30779 WAT       0.0467
  30780 WAT        25.9090   29.5940   18.0910 O      30780 WAT       0.0729
  30781 WAT        25.9090   29.5940   18.3410 O      30781 WAT       0.0919
  30782 WAT        25.9090   29.5940   18.5910 O      30782 WAT       0.0865
  30783 WAT        25.9090   29.5940   18.8410 O      30783 WAT       0.0623
  30784 WAT        25.9090   29.5940   26.5910 O      30784 WAT       0.0474
  30785 WAT        25.9090   29.5940   26.8410 O      30785 WAT       0.0509
  30786 WAT        25.9090   29.5940   27.0910 O      30786 WAT       0.0508
  30787 WAT        25.9090   29.5940   27.3410 O      30787 WAT       0.0466
  30788 WAT        25.9090   29.8440   14.8410 O      30788 WAT       0.0557
  30789 WAT        25.9090   29.8440   15.0910 O      30789 WAT       0.0641
  30790 WAT        25.9090   29.8440   15.3410 O      30790 WAT       0.0549
  30791 WAT        25.9090   29.8440   17.8410 O      30791 WAT       0.0627
  30792 WAT        25.9090   29.8440   18.0910 O      30792 WAT       0.1013
  30793 WAT        25.9090   29.8440   18.3410 O      30793 WAT       0.1184
  30794 WAT        25.9090   29.8440   18.5910 O      30794 WAT       0.1030
  30795 WAT        25.9090   29.8440   18.8410 O      30795 WAT       0.0692
  30796 WAT        25.9090   29.8440   26.5910 O      30796 WAT       0.0523
  30797 WAT        25.9090   29.8440   26.8410 O      30797 WAT       0.0569
  30798 WAT        25.9090   29.8440   27.0910 O      30798 WAT       0.0579
  30799 WAT        25.9090   29.8440   27.3410 O      30799 WAT       0.0543
  30800 WAT        25.9090   29.8440   27.5910 O      30800 WAT       0.0462
  30801 WAT        25.9090   29.8440   29.0910 O      30801 WAT       0.0451
  30802 WAT        25.9090   30.0940   14.8410 O      30802 WAT       0.0686
  30803 WAT        25.9090   30.0940   15.0910 O      30803 WAT       0.0882
  30804 WAT        25.9090   30.0940   15.3410 O      30804 WAT       0.0823
  30805 WAT        25.9090   30.0940   15.5910 O      30805 WAT       0.0568
  30806 WAT        25.9090   30.0940   17.8410 O      30806 WAT       0.0775
  30807 WAT        25.9090   30.0940   18.0910 O      30807 WAT       0.1189
  30808 WAT        25.9090   30.0940   18.3410 O      30808 WAT       0.1306
  30809 WAT        25.9090   30.0940   18.5910 O      30809 WAT       0.1058
  30810 WAT        25.9090   30.0940   18.8410 O      30810 WAT       0.0664
  30811 WAT        25.9090   30.0940   26.3410 O      30811 WAT       0.0456
  30812 WAT        25.9090   30.0940   26.5910 O      30812 WAT       0.0533
  30813 WAT        25.9090   30.0940   26.8410 O      30813 WAT       0.0588
  30814 WAT        25.9090   30.0940   27.0910 O      30814 WAT       0.0607
  30815 WAT        25.9090   30.0940   27.3410 O      30815 WAT       0.0576
  30816 WAT        25.9090   30.0940   27.5910 O      30816 WAT       0.0494
  30817 WAT        25.9090   30.3440   14.8410 O      30817 WAT       0.0797
  30818 WAT        25.9090   30.3440   15.0910 O      30818 WAT       0.1188
  30819 WAT        25.9090   30.3440   15.3410 O      30819 WAT       0.1264
  30820 WAT        25.9090   30.3440   15.5910 O      30820 WAT       0.0967
  30821 WAT        25.9090   30.3440   15.8410 O      30821 WAT       0.0538
  30822 WAT        25.9090   30.3440   17.8410 O      30822 WAT       0.0805
  30823 WAT        25.9090   30.3440   18.0910 O      30823 WAT       0.1191
  30824 WAT        25.9090   30.3440   18.3410 O      30824 WAT       0.1248
  30825 WAT        25.9090   30.3440   18.5910 O      30825 WAT       0.0958
  30826 WAT        25.9090   30.3440   18.8410 O      30826 WAT       0.0572
  30827 WAT        25.9090   30.3440   26.5910 O      30827 WAT       0.0494
  30828 WAT        25.9090   30.3440   26.8410 O      30828 WAT       0.0551
  30829 WAT        25.9090   30.3440   27.0910 O      30829 WAT       0.0574
  30830 WAT        25.9090   30.3440   27.3410 O      30830 WAT       0.0547
  30831 WAT        25.9090   30.3440   27.5910 O      30831 WAT       0.0469
  30832 WAT        25.9090   30.5940   14.8410 O      30832 WAT       0.0876
  30833 WAT        25.9090   30.5940   15.0910 O      30833 WAT       0.1511
  30834 WAT        25.9090   30.5940   15.3410 O      30834 WAT       0.1828
  30835 WAT        25.9090   30.5940   15.5910 O      30835 WAT       0.1556
  30836 WAT        25.9090   30.5940   15.8410 O      30836 WAT       0.0941
  30837 WAT        25.9090   30.5940   17.8410 O      30837 WAT       0.0718
  30838 WAT        25.9090   30.5940   18.0910 O      30838 WAT       0.1033
  30839 WAT        25.9090   30.5940   18.3410 O      30839 WAT       0.1054
  30840 WAT        25.9090   30.5940   18.5910 O      30840 WAT       0.0788
  30841 WAT        25.9090   30.5940   18.8410 O      30841 WAT       0.0464
  30842 WAT        25.9090   30.5940   26.8410 O      30842 WAT       0.0464
  30843 WAT        25.9090   30.5940   27.0910 O      30843 WAT       0.0485
  30844 WAT        25.9090   30.5940   27.3410 O      30844 WAT       0.0465
  30845 WAT        25.9090   30.8440   14.8410 O      30845 WAT       0.0900
  30846 WAT        25.9090   30.8440   15.0910 O      30846 WAT       0.1764
  30847 WAT        25.9090   30.8440   15.3410 O      30847 WAT       0.2377
  30848 WAT        25.9090   30.8440   15.5910 O      30848 WAT       0.2213
  30849 WAT        25.9090   30.8440   15.8410 O      30849 WAT       0.1438
  30850 WAT        25.9090   30.8440   16.0910 O      30850 WAT       0.0671
  30851 WAT        25.9090   30.8440   17.8410 O      30851 WAT       0.0575
  30852 WAT        25.9090   30.8440   18.0910 O      30852 WAT       0.0812
  30853 WAT        25.9090   30.8440   18.3410 O      30853 WAT       0.0825
  30854 WAT        25.9090   30.8440   18.5910 O      30854 WAT       0.0624
  30855 WAT        25.9090   31.0940   14.8410 O      30855 WAT       0.0861
  30856 WAT        25.9090   31.0940   15.0910 O      30856 WAT       0.1864
  30857 WAT        25.9090   31.0940   15.3410 O      30857 WAT       0.2732
  30858 WAT        25.9090   31.0940   15.5910 O      30858 WAT       0.2726
  30859 WAT        25.9090   31.0940   15.8410 O      30859 WAT       0.1873
  30860 WAT        25.9090   31.0940   16.0910 O      30860 WAT       0.0913
  30861 WAT        25.9090   31.0940   18.0910 O      30861 WAT       0.0633
  30862 WAT        25.9090   31.0940   18.3410 O      30862 WAT       0.0653
  30863 WAT        25.9090   31.0940   18.5910 O      30863 WAT       0.0515
  30864 WAT        25.9090   31.0940   24.0910 O      30864 WAT       0.0474
  30865 WAT        25.9090   31.0940   24.3410 O      30865 WAT       0.0501
  30866 WAT        25.9090   31.0940   24.5910 O      30866 WAT       0.0502
  30867 WAT        25.9090   31.0940   24.8410 O      30867 WAT       0.0472
  30868 WAT        25.9090   31.3440   14.8410 O      30868 WAT       0.0767
  30869 WAT        25.9090   31.3440   15.0910 O      30869 WAT       0.1784
  30870 WAT        25.9090   31.3440   15.3410 O      30870 WAT       0.2770
  30871 WAT        25.9090   31.3440   15.5910 O      30871 WAT       0.2900
  30872 WAT        25.9090   31.3440   15.8410 O      30872 WAT       0.2075
  30873 WAT        25.9090   31.3440   16.0910 O      30873 WAT       0.1048
  30874 WAT        25.9090   31.3440   18.0910 O      30874 WAT       0.0536
  30875 WAT        25.9090   31.3440   18.3410 O      30875 WAT       0.0565
  30876 WAT        25.9090   31.3440   18.5910 O      30876 WAT       0.0467
  30877 WAT        25.9090   31.3440   23.8410 O      30877 WAT       0.0489
  30878 WAT        25.9090   31.3440   24.0910 O      30878 WAT       0.0527
  30879 WAT        25.9090   31.3440   24.3410 O      30879 WAT       0.0538
  30880 WAT        25.9090   31.3440   24.5910 O      30880 WAT       0.0525
  30881 WAT        25.9090   31.3440   24.8410 O      30881 WAT       0.0487
  30882 WAT        25.9090   31.5940   14.8410 O      30882 WAT       0.0642
  30883 WAT        25.9090   31.5940   15.0910 O      30883 WAT       0.1556
  30884 WAT        25.9090   31.5940   15.3410 O      30884 WAT       0.2498
  30885 WAT        25.9090   31.5940   15.5910 O      30885 WAT       0.2689
  30886 WAT        25.9090   31.5940   15.8410 O      30886 WAT       0.1972
  30887 WAT        25.9090   31.5940   16.0910 O      30887 WAT       0.1021
  30888 WAT        25.9090   31.5940   18.0910 O      30888 WAT       0.0502
  30889 WAT        25.9090   31.5940   18.3410 O      30889 WAT       0.0528
  30890 WAT        25.9090   31.5940   23.8410 O      30890 WAT       0.0507
  30891 WAT        25.9090   31.5940   24.0910 O      30891 WAT       0.0534
  30892 WAT        25.9090   31.5940   24.3410 O      30892 WAT       0.0534
  30893 WAT        25.9090   31.5940   24.5910 O      30893 WAT       0.0512
  30894 WAT        25.9090   31.5940   24.8410 O      30894 WAT       0.0473
  30895 WAT        25.9090   31.8440   14.8410 O      30895 WAT       0.0518
  30896 WAT        25.9090   31.8440   15.0910 O      30896 WAT       0.1271
  30897 WAT        25.9090   31.8440   15.3410 O      30897 WAT       0.2057
  30898 WAT        25.9090   31.8440   15.5910 O      30898 WAT       0.2230
  30899 WAT        25.9090   31.8440   15.8410 O      30899 WAT       0.1652
  30900 WAT        25.9090   31.8440   16.0910 O      30900 WAT       0.0868
  30901 WAT        25.9090   31.8440   18.0910 O      30901 WAT       0.0487
  30902 WAT        25.9090   31.8440   18.3410 O      30902 WAT       0.0498
  30903 WAT        25.9090   31.8440   20.3410 O      30903 WAT       0.0466
  30904 WAT        25.9090   31.8440   20.5910 O      30904 WAT       0.0519
  30905 WAT        25.9090   31.8440   20.8410 O      30905 WAT       0.0566
  30906 WAT        25.9090   31.8440   21.0910 O      30906 WAT       0.0574
  30907 WAT        25.9090   31.8440   21.3410 O      30907 WAT       0.0511
  30908 WAT        25.9090   31.8440   23.8410 O      30908 WAT       0.0488
  30909 WAT        25.9090   31.8440   24.0910 O      30909 WAT       0.0504
  30910 WAT        25.9090   31.8440   24.3410 O      30910 WAT       0.0494
  30911 WAT        25.9090   31.8440   24.5910 O      30911 WAT       0.0470
  30912 WAT        25.9090   32.0940   15.0910 O      30912 WAT       0.1021
  30913 WAT        25.9090   32.0940   15.3410 O      30913 WAT       0.1622
  30914 WAT        25.9090   32.0940   15.5910 O      30914 WAT       0.1738
  30915 WAT        25.9090   32.0940   15.8410 O      30915 WAT       0.1284
  30916 WAT        25.9090   32.0940   16.0910 O      30916 WAT       0.0683
  30917 WAT        25.9090   32.0940   18.0910 O      30917 WAT       0.0469
  30918 WAT        25.9090   32.0940   18.3410 O      30918 WAT       0.0457
  30919 WAT        25.9090   32.0940   20.0910 O      30919 WAT       0.0508
  30920 WAT        25.9090   32.0940   20.3410 O      30920 WAT       0.0573
  30921 WAT        25.9090   32.0940   20.5910 O      30921 WAT       0.0627
  30922 WAT        25.9090   32.0940   20.8410 O      30922 WAT       0.0664
  30923 WAT        25.9090   32.0940   21.0910 O      30923 WAT       0.0654
  30924 WAT        25.9090   32.0940   21.3410 O      30924 WAT       0.0566
  30925 WAT        25.9090   32.0940   24.0910 O      30925 WAT       0.0452
  30926 WAT        25.9090   32.3440   15.0910 O      30926 WAT       0.0860
  30927 WAT        25.9090   32.3440   15.3410 O      30927 WAT       0.1300
  30928 WAT        25.9090   32.3440   15.5910 O      30928 WAT       0.1350
  30929 WAT        25.9090   32.3440   15.8410 O      30929 WAT       0.0986
  30930 WAT        25.9090   32.3440   16.0910 O      30930 WAT       0.0536
  30931 WAT        25.9090   32.3440   18.0910 O      30931 WAT       0.0450
  30932 WAT        25.9090   32.3440   20.0910 O      30932 WAT       0.0526
  30933 WAT        25.9090   32.3440   20.3410 O      30933 WAT       0.0590
  30934 WAT        25.9090   32.3440   20.5910 O      30934 WAT       0.0629
  30935 WAT        25.9090   32.3440   20.8410 O      30935 WAT       0.0640
  30936 WAT        25.9090   32.3440   21.0910 O      30936 WAT       0.0602
  30937 WAT        25.9090   32.3440   21.3410 O      30937 WAT       0.0500
  30938 WAT        25.9090   32.5940   15.0910 O      30938 WAT       0.0804
  30939 WAT        25.9090   32.5940   15.3410 O      30939 WAT       0.1112
  30940 WAT        25.9090   32.5940   15.5910 O      30940 WAT       0.1090
  30941 WAT        25.9090   32.5940   15.8410 O      30941 WAT       0.0780
  30942 WAT        25.9090   32.5940   20.0910 O      30942 WAT       0.0455
  30943 WAT        25.9090   32.5940   20.3410 O      30943 WAT       0.0502
  30944 WAT        25.9090   32.5940   20.5910 O      30944 WAT       0.0518
  30945 WAT        25.9090   32.5940   20.8410 O      30945 WAT       0.0501
  30946 WAT        25.9090   32.8440   14.8410 O      30946 WAT       0.0498
  30947 WAT        25.9090   32.8440   15.0910 O      30947 WAT       0.0836
  30948 WAT        25.9090   32.8440   15.3410 O      30948 WAT       0.1022
  30949 WAT        25.9090   32.8440   15.5910 O      30949 WAT       0.0921
  30950 WAT        25.9090   32.8440   15.8410 O      30950 WAT       0.0636
  30951 WAT        25.9090   32.8440   17.8410 O      30951 WAT       0.0451
  30952 WAT        25.9090   33.0940   14.8410 O      30952 WAT       0.0636
  30953 WAT        25.9090   33.0940   15.0910 O      30953 WAT       0.0903
  30954 WAT        25.9090   33.0940   15.3410 O      30954 WAT       0.0963
  30955 WAT        25.9090   33.0940   15.5910 O      30955 WAT       0.0788
  30956 WAT        25.9090   33.0940   15.8410 O      30956 WAT       0.0521
  30957 WAT        25.9090   33.0940   17.8410 O      30957 WAT       0.0467
  30958 WAT        25.9090   33.3440   11.0910 O      30958 WAT       0.0552
  30959 WAT        25.9090   33.3440   11.3410 O      30959 WAT       0.0807
  30960 WAT        25.9090   33.3440   11.5910 O      30960 WAT       0.0861
  30961 WAT        25.9090   33.3440   11.8410 O      30961 WAT       0.0729
  30962 WAT        25.9090   33.3440   12.0910 O      30962 WAT       0.0552
  30963 WAT        25.9090   33.3440   14.5910 O      30963 WAT       0.0489
  30964 WAT        25.9090   33.3440   14.8410 O      30964 WAT       0.0773
  30965 WAT        25.9090   33.3440   15.0910 O      30965 WAT       0.0940
  30966 WAT        25.9090   33.3440   15.3410 O      30966 WAT       0.0880
  30967 WAT        25.9090   33.3440   15.5910 O      30967 WAT       0.0656
  30968 WAT        25.9090   33.3440   17.8410 O      30968 WAT       0.0467
  30969 WAT        25.9090   33.5940   10.8410 O      30969 WAT       0.0496
  30970 WAT        25.9090   33.5940   11.0910 O      30970 WAT       0.1052
  30971 WAT        25.9090   33.5940   11.3410 O      30971 WAT       0.1558
  30972 WAT        25.9090   33.5940   11.5910 O      30972 WAT       0.1667
  30973 WAT        25.9090   33.5940   11.8410 O      30973 WAT       0.1364
  30974 WAT        25.9090   33.5940   12.0910 O      30974 WAT       0.0942
  30975 WAT        25.9090   33.5940   12.3410 O      30975 WAT       0.0620
  30976 WAT        25.9090   33.5940   14.5910 O      30976 WAT       0.0622
  30977 WAT        25.9090   33.5940   14.8410 O      30977 WAT       0.0839
  30978 WAT        25.9090   33.5940   15.0910 O      30978 WAT       0.0892
  30979 WAT        25.9090   33.5940   15.3410 O      30979 WAT       0.0750
  30980 WAT        25.9090   33.5940   15.5910 O      30980 WAT       0.0520
  30981 WAT        25.9090   33.8440   10.8410 O      30981 WAT       0.0623
  30982 WAT        25.9090   33.8440   11.0910 O      30982 WAT       0.1353
  30983 WAT        25.9090   33.8440   11.3410 O      30983 WAT       0.2057
  30984 WAT        25.9090   33.8440   11.5910 O      30984 WAT       0.2252
  30985 WAT        25.9090   33.8440   11.8410 O      30985 WAT       0.1852
  30986 WAT        25.9090   33.8440   12.0910 O      30986 WAT       0.1232
  30987 WAT        25.9090   33.8440   12.3410 O      30987 WAT       0.0740
  30988 WAT        25.9090   33.8440   14.3410 O      30988 WAT       0.0460
  30989 WAT        25.9090   33.8440   14.5910 O      30989 WAT       0.0668
  30990 WAT        25.9090   33.8440   14.8410 O      30990 WAT       0.0786
  30991 WAT        25.9090   33.8440   15.0910 O      30991 WAT       0.0747
  30992 WAT        25.9090   33.8440   15.3410 O      30992 WAT       0.0581
  30993 WAT        25.9090   34.0940   10.8410 O      30993 WAT       0.0526
  30994 WAT        25.9090   34.0940   11.0910 O      30994 WAT       0.1183
  30995 WAT        25.9090   34.0940   11.3410 O      30995 WAT       0.1865
  30996 WAT        25.9090   34.0940   11.5910 O      30996 WAT       0.2122
  30997 WAT        25.9090   34.0940   11.8410 O      30997 WAT       0.1803
  30998 WAT        25.9090   34.0940   12.0910 O      30998 WAT       0.1209
  30999 WAT        25.9090   34.0940   12.3410 O      30999 WAT       0.0696
  31000 WAT        25.9090   34.0940   14.3410 O      31000 WAT       0.0454
  31001 WAT        25.9090   34.0940   14.5910 O      31001 WAT       0.0596
  31002 WAT        25.9090   34.0940   14.8410 O      31002 WAT       0.0633
  31003 WAT        25.9090   34.0940   15.0910 O      31003 WAT       0.0553
  31004 WAT        25.9090   34.3440   11.0910 O      31004 WAT       0.0707
  31005 WAT        25.9090   34.3440   11.3410 O      31005 WAT       0.1167
  31006 WAT        25.9090   34.3440   11.5910 O      31006 WAT       0.1396
  31007 WAT        25.9090   34.3440   11.8410 O      31007 WAT       0.1247
  31008 WAT        25.9090   34.3440   12.0910 O      31008 WAT       0.0869
  31009 WAT        25.9090   34.3440   12.3410 O      31009 WAT       0.0502
  31010 WAT        25.9090   34.3440   14.5910 O      31010 WAT       0.0452
  31011 WAT        25.9090   34.3440   14.8410 O      31011 WAT       0.0453
  31012 WAT        25.9090   34.5940   11.3410 O      31012 WAT       0.0506
  31013 WAT        25.9090   34.5940   11.5910 O      31013 WAT       0.0643
  31014 WAT        25.9090   34.5940   11.8410 O      31014 WAT       0.0610
  31015 WAT        25.9090   34.5940   12.0910 O      31015 WAT       0.0451
  31016 WAT        26.1590    9.3440   28.5910 O      31016 WAT       0.0455
  31017 WAT        26.1590    9.3440   28.8410 O      31017 WAT       0.0467
  31018 WAT        26.1590    9.5940   28.5910 O      31018 WAT       0.0479
  31019 WAT        26.1590    9.5940   28.8410 O      31019 WAT       0.0490
  31020 WAT        26.1590    9.8440   25.0910 O      31020 WAT       0.0460
  31021 WAT        26.1590    9.8440   25.3410 O      31021 WAT       0.0465
  31022 WAT        26.1590    9.8440   28.5910 O      31022 WAT       0.0482
  31023 WAT        26.1590    9.8440   28.8410 O      31023 WAT       0.0501
  31024 WAT        26.1590   10.0940   25.0910 O      31024 WAT       0.0482
  31025 WAT        26.1590   10.0940   25.3410 O      31025 WAT       0.0514
  31026 WAT        26.1590   10.0940   25.5910 O      31026 WAT       0.0502
  31027 WAT        26.1590   10.0940   28.5910 O      31027 WAT       0.0464
  31028 WAT        26.1590   10.0940   28.8410 O      31028 WAT       0.0498
  31029 WAT        26.1590   10.3440   21.8410 O      31029 WAT       0.0455
  31030 WAT        26.1590   10.3440   22.0910 O      31030 WAT       0.0466
  31031 WAT        26.1590   10.3440   22.3410 O      31031 WAT       0.0456
  31032 WAT        26.1590   10.3440   25.3410 O      31032 WAT       0.0503
  31033 WAT        26.1590   10.3440   25.5910 O      31033 WAT       0.0512
  31034 WAT        26.1590   10.3440   25.8410 O      31034 WAT       0.0459
  31035 WAT        26.1590   10.3440   28.8410 O      31035 WAT       0.0476
  31036 WAT        26.1590   10.5940   21.5910 O      31036 WAT       0.0457
  31037 WAT        26.1590   10.5940   21.8410 O      31037 WAT       0.0476
  31038 WAT        26.1590   10.5940   22.0910 O      31038 WAT       0.0471
  31039 WAT        26.1590   10.5940   25.5910 O      31039 WAT       0.0463
  31040 WAT        26.1590   10.8440   21.5910 O      31040 WAT       0.0465
  31041 WAT        26.1590   10.8440   21.8410 O      31041 WAT       0.0467
  31042 WAT        26.1590   11.0940   21.5910 O      31042 WAT       0.0452
  31043 WAT        26.1590   11.5940   21.0910 O      31043 WAT       0.0452
  31044 WAT        26.1590   11.8440   20.8410 O      31044 WAT       0.0458
  31045 WAT        26.1590   11.8440   21.0910 O      31045 WAT       0.0455
  31046 WAT        26.1590   12.0940   20.8410 O      31046 WAT       0.0473
  31047 WAT        26.1590   12.3440   20.5910 O      31047 WAT       0.0460
  31048 WAT        26.1590   12.3440   20.8410 O      31048 WAT       0.0474
  31049 WAT        26.1590   12.5940   20.5910 O      31049 WAT       0.0457
  31050 WAT        26.1590   12.5940   20.8410 O      31050 WAT       0.0461
  31051 WAT        26.1590   13.3440   14.5910 O      31051 WAT       0.0470
  31052 WAT        26.1590   13.3440   14.8410 O      31052 WAT       0.0498
  31053 WAT        26.1590   13.3440   15.0910 O      31053 WAT       0.0507
  31054 WAT        26.1590   13.3440   15.3410 O      31054 WAT       0.0497
  31055 WAT        26.1590   13.3440   15.5910 O      31055 WAT       0.0467
  31056 WAT        26.1590   13.5940   14.0910 O      31056 WAT       0.0456
  31057 WAT        26.1590   13.5940   14.3410 O      31057 WAT       0.0498
  31058 WAT        26.1590   13.5940   14.5910 O      31058 WAT       0.0530
  31059 WAT        26.1590   13.5940   14.8410 O      31059 WAT       0.0550
  31060 WAT        26.1590   13.5940   15.0910 O      31060 WAT       0.0556
  31061 WAT        26.1590   13.5940   15.3410 O      31061 WAT       0.0550
  31062 WAT        26.1590   13.5940   15.5910 O      31062 WAT       0.0530
  31063 WAT        26.1590   13.5940   15.8410 O      31063 WAT       0.0499
  31064 WAT        26.1590   13.5940   16.0910 O      31064 WAT       0.0466
  31065 WAT        26.1590   13.8440   13.5910 O      31065 WAT       0.0463
  31066 WAT        26.1590   13.8440   13.8410 O      31066 WAT       0.0501
  31067 WAT        26.1590   13.8440   14.0910 O      31067 WAT       0.0516
  31068 WAT        26.1590   13.8440   14.3410 O      31068 WAT       0.0520
  31069 WAT        26.1590   13.8440   14.5910 O      31069 WAT       0.0522
  31070 WAT        26.1590   13.8440   14.8410 O      31070 WAT       0.0522
  31071 WAT        26.1590   13.8440   15.0910 O      31071 WAT       0.0522
  31072 WAT        26.1590   13.8440   15.3410 O      31072 WAT       0.0521
  31073 WAT        26.1590   13.8440   15.5910 O      31073 WAT       0.0517
  31074 WAT        26.1590   13.8440   15.8410 O      31074 WAT       0.0506
  31075 WAT        26.1590   13.8440   16.0910 O      31075 WAT       0.0489
  31076 WAT        26.1590   13.8440   16.3410 O      31076 WAT       0.0472
  31077 WAT        26.1590   14.0940   13.3410 O      31077 WAT       0.0527
  31078 WAT        26.1590   14.0940   13.5910 O      31078 WAT       0.0567
  31079 WAT        26.1590   14.0940   13.8410 O      31079 WAT       0.0553
  31080 WAT        26.1590   14.0940   14.0910 O      31080 WAT       0.0514
  31081 WAT        26.1590   14.0940   14.3410 O      31081 WAT       0.0472
  31082 WAT        26.1590   14.0940   16.5910 O      31082 WAT       0.0454
  31083 WAT        26.1590   14.3440   13.0910 O      31083 WAT       0.0559
  31084 WAT        26.1590   14.3440   13.3410 O      31084 WAT       0.0621
  31085 WAT        26.1590   14.3440   13.5910 O      31085 WAT       0.0598
  31086 WAT        26.1590   14.3440   13.8410 O      31086 WAT       0.0518
  31087 WAT        26.1590   14.5940   12.8410 O      31087 WAT       0.0539
  31088 WAT        26.1590   14.5940   13.0910 O      31088 WAT       0.0631
  31089 WAT        26.1590   14.5940   13.3410 O      31089 WAT       0.0623
  31090 WAT        26.1590   14.5940   13.5910 O      31090 WAT       0.0526
  31091 WAT        26.1590   14.8440   12.8410 O      31091 WAT       0.0576
  31092 WAT        26.1590   14.8440   13.0910 O      31092 WAT       0.0609
  31093 WAT        26.1590   14.8440   13.3410 O      31093 WAT       0.0529
  31094 WAT        26.1590   14.8440   24.5910 O      31094 WAT       0.0518
  31095 WAT        26.1590   14.8440   24.8410 O      31095 WAT       0.0545
  31096 WAT        26.1590   14.8440   25.0910 O      31096 WAT       0.0510
  31097 WAT        26.1590   15.0940   12.8410 O      31097 WAT       0.0523
  31098 WAT        26.1590   15.0940   13.0910 O      31098 WAT       0.0501
  31099 WAT        26.1590   15.0940   24.3410 O      31099 WAT       0.0567
  31100 WAT        26.1590   15.0940   24.5910 O      31100 WAT       0.0644
  31101 WAT        26.1590   15.0940   24.8410 O      31101 WAT       0.0643
  31102 WAT        26.1590   15.0940   25.0910 O      31102 WAT       0.0563
  31103 WAT        26.1590   15.3440   24.0910 O      31103 WAT       0.0524
  31104 WAT        26.1590   15.3440   24.3410 O      31104 WAT       0.0640
  31105 WAT        26.1590   15.3440   24.5910 O      31105 WAT       0.0694
  31106 WAT        26.1590   15.3440   24.8410 O      31106 WAT       0.0662
  31107 WAT        26.1590   15.3440   25.0910 O      31107 WAT       0.0552
  31108 WAT        26.1590   15.5940   21.8410 O      31108 WAT       0.0461
  31109 WAT        26.1590   15.5940   22.0910 O      31109 WAT       0.0514
  31110 WAT        26.1590   15.5940   22.3410 O      31110 WAT       0.0506
  31111 WAT        26.1590   15.5940   22.5910 O      31111 WAT       0.0451
  31112 WAT        26.1590   15.5940   24.0910 O      31112 WAT       0.0546
  31113 WAT        26.1590   15.5940   24.3410 O      31113 WAT       0.0634
  31114 WAT        26.1590   15.5940   24.5910 O      31114 WAT       0.0658
  31115 WAT        26.1590   15.5940   24.8410 O      31115 WAT       0.0604
  31116 WAT        26.1590   15.5940   25.0910 O      31116 WAT       0.0489
  31117 WAT        26.1590   15.8440   21.8410 O      31117 WAT       0.0466
  31118 WAT        26.1590   15.8440   22.0910 O      31118 WAT       0.0545
  31119 WAT        26.1590   15.8440   22.3410 O      31119 WAT       0.0559
  31120 WAT        26.1590   15.8440   22.5910 O      31120 WAT       0.0516
  31121 WAT        26.1590   15.8440   24.0910 O      31121 WAT       0.0511
  31122 WAT        26.1590   15.8440   24.3410 O      31122 WAT       0.0567
  31123 WAT        26.1590   15.8440   24.5910 O      31123 WAT       0.0568
  31124 WAT        26.1590   15.8440   24.8410 O      31124 WAT       0.0510
  31125 WAT        26.1590   16.0940   22.0910 O      31125 WAT       0.0530
  31126 WAT        26.1590   16.0940   22.3410 O      31126 WAT       0.0560
  31127 WAT        26.1590   16.0940   22.5910 O      31127 WAT       0.0532
  31128 WAT        26.1590   16.0940   22.8410 O      31128 WAT       0.0468
  31129 WAT        26.1590   16.0940   24.3410 O      31129 WAT       0.0476
  31130 WAT        26.1590   16.0940   24.5910 O      31130 WAT       0.0467
  31131 WAT        26.1590   16.3440   22.0910 O      31131 WAT       0.0487
  31132 WAT        26.1590   16.3440   22.3410 O      31132 WAT       0.0526
  31133 WAT        26.1590   16.3440   22.5910 O      31133 WAT       0.0509
  31134 WAT        26.1590   16.3440   22.8410 O      31134 WAT       0.0454
  31135 WAT        26.1590   16.5940   22.3410 O      31135 WAT       0.0479
  31136 WAT        26.1590   16.5940   22.5910 O      31136 WAT       0.0473
  31137 WAT        26.1590   16.8440    8.8410 O      31137 WAT       0.0466
  31138 WAT        26.1590   17.0940    8.3410 O      31138 WAT       0.0456
  31139 WAT        26.1590   17.0940    8.5910 O      31139 WAT       0.0518
  31140 WAT        26.1590   17.0940    8.8410 O      31140 WAT       0.0471
  31141 WAT        26.1590   17.3440    8.3410 O      31141 WAT       0.0513
  31142 WAT        26.1590   17.3440    8.5910 O      31142 WAT       0.0517
  31143 WAT        26.1590   17.5940    8.3410 O      31143 WAT       0.0454
  31144 WAT        26.1590   18.8440    5.8410 O      31144 WAT       0.0451
  31145 WAT        26.1590   18.8440    6.0910 O      31145 WAT       0.0721
  31146 WAT        26.1590   18.8440    6.3410 O      31146 WAT       0.0881
  31147 WAT        26.1590   18.8440    6.5910 O      31147 WAT       0.0792
  31148 WAT        26.1590   18.8440    6.8410 O      31148 WAT       0.0508
  31149 WAT        26.1590   18.8440   26.8410 O      31149 WAT       0.0546
  31150 WAT        26.1590   18.8440   27.0910 O      31150 WAT       0.0571
  31151 WAT        26.1590   18.8440   27.3410 O      31151 WAT       0.0467
  31152 WAT        26.1590   19.0940    3.3410 O      31152 WAT       0.0455
  31153 WAT        26.1590   19.0940    3.5910 O      31153 WAT       0.0468
  31154 WAT        26.1590   19.0940    5.5910 O      31154 WAT       0.0574
  31155 WAT        26.1590   19.0940    5.8410 O      31155 WAT       0.1044
  31156 WAT        26.1590   19.0940    6.0910 O      31156 WAT       0.1525
  31157 WAT        26.1590   19.0940    6.3410 O      31157 WAT       0.1703
  31158 WAT        26.1590   19.0940    6.5910 O      31158 WAT       0.1395
  31159 WAT        26.1590   19.0940    6.8410 O      31159 WAT       0.0811
  31160 WAT        26.1590   19.0940   26.5910 O      31160 WAT       0.0554
  31161 WAT        26.1590   19.0940   26.8410 O      31161 WAT       0.0793
  31162 WAT        26.1590   19.0940   27.0910 O      31162 WAT       0.0837
  31163 WAT        26.1590   19.0940   27.3410 O      31163 WAT       0.0666
  31164 WAT        26.1590   19.3440    3.0910 O      31164 WAT       0.0512
  31165 WAT        26.1590   19.3440    3.3410 O      31165 WAT       0.0648
  31166 WAT        26.1590   19.3440    3.5910 O      31166 WAT       0.0674
  31167 WAT        26.1590   19.3440    3.8410 O      31167 WAT       0.0561
  31168 WAT        26.1590   19.3440    5.3410 O      31168 WAT       0.0542
  31169 WAT        26.1590   19.3440    5.5910 O      31169 WAT       0.1063
  31170 WAT        26.1590   19.3440    5.8410 O      31170 WAT       0.1765
  31171 WAT        26.1590   19.3440    6.0910 O      31171 WAT       0.2344
  31172 WAT        26.1590   19.3440    6.3410 O      31172 WAT       0.2381
  31173 WAT        26.1590   19.3440    6.5910 O      31173 WAT       0.1777
  31174 WAT        26.1590   19.3440    6.8410 O      31174 WAT       0.0943
  31175 WAT        26.1590   19.3440   26.5910 O      31175 WAT       0.0616
  31176 WAT        26.1590   19.3440   26.8410 O      31176 WAT       0.0907
  31177 WAT        26.1590   19.3440   27.0910 O      31177 WAT       0.0960
  31178 WAT        26.1590   19.3440   27.3410 O      31178 WAT       0.0753
  31179 WAT        26.1590   19.3440   27.5910 O      31179 WAT       0.0481
  31180 WAT        26.1590   19.5940    3.0910 O      31180 WAT       0.0608
  31181 WAT        26.1590   19.5940    3.3410 O      31181 WAT       0.0774
  31182 WAT        26.1590   19.5940    3.5910 O      31182 WAT       0.0804
  31183 WAT        26.1590   19.5940    3.8410 O      31183 WAT       0.0668
  31184 WAT        26.1590   19.5940    4.0910 O      31184 WAT       0.0453
  31185 WAT        26.1590   19.5940    5.3410 O      31185 WAT       0.0780
  31186 WAT        26.1590   19.5940    5.5910 O      31186 WAT       0.1408
  31187 WAT        26.1590   19.5940    5.8410 O      31187 WAT       0.2114
  31188 WAT        26.1590   19.5940    6.0910 O      31188 WAT       0.2526
  31189 WAT        26.1590   19.5940    6.3410 O      31189 WAT       0.2312
  31190 WAT        26.1590   19.5940    6.5910 O      31190 WAT       0.1565
  31191 WAT        26.1590   19.5940    6.8410 O      31191 WAT       0.0757
  31192 WAT        26.1590   19.5940   26.5910 O      31192 WAT       0.0524
  31193 WAT        26.1590   19.5940   26.8410 O      31193 WAT       0.0792
  31194 WAT        26.1590   19.5940   27.0910 O      31194 WAT       0.0852
  31195 WAT        26.1590   19.5940   27.3410 O      31195 WAT       0.0676
  31196 WAT        26.1590   19.8440    3.0910 O      31196 WAT       0.0598
  31197 WAT        26.1590   19.8440    3.3410 O      31197 WAT       0.0750
  31198 WAT        26.1590   19.8440    3.5910 O      31198 WAT       0.0769
  31199 WAT        26.1590   19.8440    3.8410 O      31199 WAT       0.0631
  31200 WAT        26.1590   19.8440    5.3410 O      31200 WAT       0.0802
  31201 WAT        26.1590   19.8440    5.5910 O      31201 WAT       0.1316
  31202 WAT        26.1590   19.8440    5.8410 O      31202 WAT       0.1767
  31203 WAT        26.1590   19.8440    6.0910 O      31203 WAT       0.1878
  31204 WAT        26.1590   19.8440    6.3410 O      31204 WAT       0.1532
  31205 WAT        26.1590   19.8440    6.5910 O      31205 WAT       0.0930
  31206 WAT        26.1590   19.8440   26.8410 O      31206 WAT       0.0548
  31207 WAT        26.1590   19.8440   27.0910 O      31207 WAT       0.0625
  31208 WAT        26.1590   19.8440   27.3410 O      31208 WAT       0.0529
  31209 WAT        26.1590   20.0940    3.0910 O      31209 WAT       0.0493
  31210 WAT        26.1590   20.0940    3.3410 O      31210 WAT       0.0593
  31211 WAT        26.1590   20.0940    3.5910 O      31211 WAT       0.0587
  31212 WAT        26.1590   20.0940    3.8410 O      31212 WAT       0.0468
  31213 WAT        26.1590   20.0940    5.3410 O      31213 WAT       0.0583
  31214 WAT        26.1590   20.0940    5.5910 O      31214 WAT       0.0864
  31215 WAT        26.1590   20.0940    5.8410 O      31215 WAT       0.1026
  31216 WAT        26.1590   20.0940    6.0910 O      31216 WAT       0.0958
  31217 WAT        26.1590   20.0940    6.3410 O      31217 WAT       0.0686
  31218 WAT        26.1590   20.0940   27.0910 O      31218 WAT       0.0463
  31219 WAT        26.1590   20.0940   27.3410 O      31219 WAT       0.0452
  31220 WAT        26.1590   20.3440   27.3410 O      31220 WAT       0.0489
  31221 WAT        26.1590   20.5940   27.0910 O      31221 WAT       0.0465
  31222 WAT        26.1590   20.5940   27.3410 O      31222 WAT       0.0590
  31223 WAT        26.1590   20.5940   27.5910 O      31223 WAT       0.0528
  31224 WAT        26.1590   20.8440   19.0910 O      31224 WAT       0.0496
  31225 WAT        26.1590   20.8440   19.3410 O      31225 WAT       0.0473
  31226 WAT        26.1590   20.8440   27.0910 O      31226 WAT       0.0481
  31227 WAT        26.1590   20.8440   27.3410 O      31227 WAT       0.0676
  31228 WAT        26.1590   20.8440   27.5910 O      31228 WAT       0.0655
  31229 WAT        26.1590   21.0940   18.8410 O      31229 WAT       0.0554
  31230 WAT        26.1590   21.0940   19.0910 O      31230 WAT       0.0672
  31231 WAT        26.1590   21.0940   19.3410 O      31231 WAT       0.0675
  31232 WAT        26.1590   21.0940   19.5910 O      31232 WAT       0.0541
  31233 WAT        26.1590   21.0940   27.3410 O      31233 WAT       0.0686
  31234 WAT        26.1590   21.0940   27.5910 O      31234 WAT       0.0728
  31235 WAT        26.1590   21.0940   27.8410 O      31235 WAT       0.0541
  31236 WAT        26.1590   21.3440   18.8410 O      31236 WAT       0.0700
  31237 WAT        26.1590   21.3440   19.0910 O      31237 WAT       0.0912
  31238 WAT        26.1590   21.3440   19.3410 O      31238 WAT       0.0955
  31239 WAT        26.1590   21.3440   19.5910 O      31239 WAT       0.0785
  31240 WAT        26.1590   21.3440   19.8410 O      31240 WAT       0.0498
  31241 WAT        26.1590   21.3440   27.3410 O      31241 WAT       0.0618
  31242 WAT        26.1590   21.3440   27.5910 O      31242 WAT       0.0733
  31243 WAT        26.1590   21.3440   27.8410 O      31243 WAT       0.0610
  31244 WAT        26.1590   21.5940   18.5910 O      31244 WAT       0.0503
  31245 WAT        26.1590   21.5940   18.8410 O      31245 WAT       0.0879
  31246 WAT        26.1590   21.5940   19.0910 O      31246 WAT       0.1205
  31247 WAT        26.1590   21.5940   19.3410 O      31247 WAT       0.1299
  31248 WAT        26.1590   21.5940   19.5910 O      31248 WAT       0.1091
  31249 WAT        26.1590   21.5940   19.8410 O      31249 WAT       0.0706
  31250 WAT        26.1590   21.5940   27.3410 O      31250 WAT       0.0530
  31251 WAT        26.1590   21.5940   27.5910 O      31251 WAT       0.0720
  31252 WAT        26.1590   21.5940   27.8410 O      31252 WAT       0.0686
  31253 WAT        26.1590   21.5940   28.0910 O      31253 WAT       0.0491
  31254 WAT        26.1590   21.8440   18.5910 O      31254 WAT       0.0561
  31255 WAT        26.1590   21.8440   18.8410 O      31255 WAT       0.1045
  31256 WAT        26.1590   21.8440   19.0910 O      31256 WAT       0.1487
  31257 WAT        26.1590   21.8440   19.3410 O      31257 WAT       0.1638
  31258 WAT        26.1590   21.8440   19.5910 O      31258 WAT       0.1402
  31259 WAT        26.1590   21.8440   19.8410 O      31259 WAT       0.0928
  31260 WAT        26.1590   21.8440   20.0910 O      31260 WAT       0.0472
  31261 WAT        26.1590   21.8440   27.3410 O      31261 WAT       0.0476
  31262 WAT        26.1590   21.8440   27.5910 O      31262 WAT       0.0738
  31263 WAT        26.1590   21.8440   27.8410 O      31263 WAT       0.0797
  31264 WAT        26.1590   21.8440   28.0910 O      31264 WAT       0.0634
  31265 WAT        26.1590   22.0940   18.5910 O      31265 WAT       0.0575
  31266 WAT        26.1590   22.0940   18.8410 O      31266 WAT       0.1121
  31267 WAT        26.1590   22.0940   19.0910 O      31267 WAT       0.1640
  31268 WAT        26.1590   22.0940   19.3410 O      31268 WAT       0.1839
  31269 WAT        26.1590   22.0940   19.5910 O      31269 WAT       0.1604
  31270 WAT        26.1590   22.0940   19.8410 O      31270 WAT       0.1095
  31271 WAT        26.1590   22.0940   20.0910 O      31271 WAT       0.0583
  31272 WAT        26.1590   22.0940   27.3410 O      31272 WAT       0.0453
  31273 WAT        26.1590   22.0940   27.5910 O      31273 WAT       0.0765
  31274 WAT        26.1590   22.0940   27.8410 O      31274 WAT       0.0893
  31275 WAT        26.1590   22.0940   28.0910 O      31275 WAT       0.0754
  31276 WAT        26.1590   22.0940   28.3410 O      31276 WAT       0.0538
  31277 WAT        26.1590   22.3440   18.5910 O      31277 WAT       0.0519
  31278 WAT        26.1590   22.3440   18.8410 O      31278 WAT       0.1046
  31279 WAT        26.1590   22.3440   19.0910 O      31279 WAT       0.1565
  31280 WAT        26.1590   22.3440   19.3410 O      31280 WAT       0.1787
  31281 WAT        26.1590   22.3440   19.5910 O      31281 WAT       0.1596
  31282 WAT        26.1590   22.3440   19.8410 O      31282 WAT       0.1131
  31283 WAT        26.1590   22.3440   20.0910 O      31283 WAT       0.0636
  31284 WAT        26.1590   22.3440   27.5910 O      31284 WAT       0.0719
  31285 WAT        26.1590   22.3440   27.8410 O      31285 WAT       0.0864
  31286 WAT        26.1590   22.3440   28.0910 O      31286 WAT       0.0745
  31287 WAT        26.1590   22.3440   28.3410 O      31287 WAT       0.0527
  31288 WAT        26.1590   22.5940   18.8410 O      31288 WAT       0.0838
  31289 WAT        26.1590   22.5940   19.0910 O      31289 WAT       0.1279
  31290 WAT        26.1590   22.5940   19.3410 O      31290 WAT       0.1491
  31291 WAT        26.1590   22.5940   19.5910 O      31291 WAT       0.1372
  31292 WAT        26.1590   22.5940   19.8410 O      31292 WAT       0.1015
  31293 WAT        26.1590   22.5940   20.0910 O      31293 WAT       0.0608
  31294 WAT        26.1590   22.5940   27.5910 O      31294 WAT       0.0570
  31295 WAT        26.1590   22.5940   27.8410 O      31295 WAT       0.0674
  31296 WAT        26.1590   22.5940   28.0910 O      31296 WAT       0.0580
  31297 WAT        26.1590   22.8440   18.8410 O      31297 WAT       0.0585
  31298 WAT        26.1590   22.8440   19.0910 O      31298 WAT       0.0905
  31299 WAT        26.1590   22.8440   19.3410 O      31299 WAT       0.1080
  31300 WAT        26.1590   22.8440   19.5910 O      31300 WAT       0.1029
  31301 WAT        26.1590   22.8440   19.8410 O      31301 WAT       0.0803
  31302 WAT        26.1590   22.8440   20.0910 O      31302 WAT       0.0517
  31303 WAT        26.1590   23.0940   19.0910 O      31303 WAT       0.0577
  31304 WAT        26.1590   23.0940   19.3410 O      31304 WAT       0.0701
  31305 WAT        26.1590   23.0940   19.5910 O      31305 WAT       0.0696
  31306 WAT        26.1590   23.0940   19.8410 O      31306 WAT       0.0579
  31307 WAT        26.1590   23.3440   19.5910 O      31307 WAT       0.0451
  31308 WAT        26.1590   23.5940    2.5910 O      31308 WAT       0.0481
  31309 WAT        26.1590   23.5940    2.8410 O      31309 WAT       0.0488
  31310 WAT        26.1590   23.5940   23.5910 O      31310 WAT       0.0539
  31311 WAT        26.1590   23.5940   23.8410 O      31311 WAT       0.0660
  31312 WAT        26.1590   23.5940   24.0910 O      31312 WAT       0.0657
  31313 WAT        26.1590   23.5940   24.3410 O      31313 WAT       0.0545
  31314 WAT        26.1590   23.8440    2.5910 O      31314 WAT       0.0671
  31315 WAT        26.1590   23.8440    2.8410 O      31315 WAT       0.0628
  31316 WAT        26.1590   23.8440   23.5910 O      31316 WAT       0.0686
  31317 WAT        26.1590   23.8440   23.8410 O      31317 WAT       0.0879
  31318 WAT        26.1590   23.8440   24.0910 O      31318 WAT       0.0932
  31319 WAT        26.1590   23.8440   24.3410 O      31319 WAT       0.0837
  31320 WAT        26.1590   23.8440   24.5910 O      31320 WAT       0.0656
  31321 WAT        26.1590   23.8440   24.8410 O      31321 WAT       0.0470
  31322 WAT        26.1590   24.0940    2.5910 O      31322 WAT       0.0994
  31323 WAT        26.1590   24.0940    2.8410 O      31323 WAT       0.0858
  31324 WAT        26.1590   24.0940    3.0910 O      31324 WAT       0.0535
  31325 WAT        26.1590   24.0940   21.5910 O      31325 WAT       0.0456
  31326 WAT        26.1590   24.0940   21.8410 O      31326 WAT       0.0455
  31327 WAT        26.1590   24.0940   23.5910 O      31327 WAT       0.0664
  31328 WAT        26.1590   24.0940   23.8410 O      31328 WAT       0.0896
  31329 WAT        26.1590   24.0940   24.0910 O      31329 WAT       0.1024
  31330 WAT        26.1590   24.0940   24.3410 O      31330 WAT       0.1005
  31331 WAT        26.1590   24.0940   24.5910 O      31331 WAT       0.0870
  31332 WAT        26.1590   24.0940   24.8410 O      31332 WAT       0.0692
  31333 WAT        26.1590   24.0940   25.0910 O      31333 WAT       0.0533
  31334 WAT        26.1590   24.3440    2.5910 O      31334 WAT       0.1463
  31335 WAT        26.1590   24.3440    2.8410 O      31335 WAT       0.1196
  31336 WAT        26.1590   24.3440    3.0910 O      31336 WAT       0.0706
  31337 WAT        26.1590   24.3440   18.3410 O      31337 WAT       0.0477
  31338 WAT        26.1590   24.3440   18.5910 O      31338 WAT       0.0473
  31339 WAT        26.1590   24.3440   21.3410 O      31339 WAT       0.0457
  31340 WAT        26.1590   24.3440   21.5910 O      31340 WAT       0.0513
  31341 WAT        26.1590   24.3440   21.8410 O      31341 WAT       0.0500
  31342 WAT        26.1590   24.3440   23.5910 O      31342 WAT       0.0487
  31343 WAT        26.1590   24.3440   23.8410 O      31343 WAT       0.0692
  31344 WAT        26.1590   24.3440   24.0910 O      31344 WAT       0.0856
  31345 WAT        26.1590   24.3440   24.3410 O      31345 WAT       0.0920
  31346 WAT        26.1590   24.3440   24.5910 O      31346 WAT       0.0878
  31347 WAT        26.1590   24.3440   24.8410 O      31347 WAT       0.0770
  31348 WAT        26.1590   24.3440   25.0910 O      31348 WAT       0.0648
  31349 WAT        26.1590   24.3440   25.3410 O      31349 WAT       0.0535
  31350 WAT        26.1590   24.5940    2.5910 O      31350 WAT       0.1909
  31351 WAT        26.1590   24.5940    2.8410 O      31351 WAT       0.1515
  31352 WAT        26.1590   24.5940    3.0910 O      31352 WAT       0.0862
  31353 WAT        26.1590   24.5940   18.0910 O      31353 WAT       0.0557
  31354 WAT        26.1590   24.5940   18.3410 O      31354 WAT       0.0664
  31355 WAT        26.1590   24.5940   18.5910 O      31355 WAT       0.0629
  31356 WAT        26.1590   24.5940   18.8410 O      31356 WAT       0.0488
  31357 WAT        26.1590   24.5940   21.5910 O      31357 WAT       0.0460
  31358 WAT        26.1590   24.5940   24.0910 O      31358 WAT       0.0543
  31359 WAT        26.1590   24.5940   24.3410 O      31359 WAT       0.0636
  31360 WAT        26.1590   24.5940   24.5910 O      31360 WAT       0.0665
  31361 WAT        26.1590   24.5940   24.8410 O      31361 WAT       0.0639
  31362 WAT        26.1590   24.5940   25.0910 O      31362 WAT       0.0581
  31363 WAT        26.1590   24.5940   25.3410 O      31363 WAT       0.0505
  31364 WAT        26.1590   24.8440    2.5910 O      31364 WAT       0.2019
  31365 WAT        26.1590   24.8440    2.8410 O      31365 WAT       0.1571
  31366 WAT        26.1590   24.8440    3.0910 O      31366 WAT       0.0869
  31367 WAT        26.1590   24.8440   18.0910 O      31367 WAT       0.0658
  31368 WAT        26.1590   24.8440   18.3410 O      31368 WAT       0.0780
  31369 WAT        26.1590   24.8440   18.5910 O      31369 WAT       0.0737
  31370 WAT        26.1590   24.8440   18.8410 O      31370 WAT       0.0565
  31371 WAT        26.1590   25.0940    2.5910 O      31371 WAT       0.1633
  31372 WAT        26.1590   25.0940    2.8410 O      31372 WAT       0.1248
  31373 WAT        26.1590   25.0940    3.0910 O      31373 WAT       0.0672
  31374 WAT        26.1590   25.0940   18.0910 O      31374 WAT       0.0636
  31375 WAT        26.1590   25.0940   18.3410 O      31375 WAT       0.0774
  31376 WAT        26.1590   25.0940   18.5910 O      31376 WAT       0.0756
  31377 WAT        26.1590   25.0940   18.8410 O      31377 WAT       0.0593
  31378 WAT        26.1590   25.0940   28.5910 O      31378 WAT       0.0466
  31379 WAT        26.1590   25.3440    2.5910 O      31379 WAT       0.0973
  31380 WAT        26.1590   25.3440    2.8410 O      31380 WAT       0.0729
  31381 WAT        26.1590   25.3440   18.0910 O      31381 WAT       0.0514
  31382 WAT        26.1590   25.3440   18.3410 O      31382 WAT       0.0657
  31383 WAT        26.1590   25.3440   18.5910 O      31383 WAT       0.0679
  31384 WAT        26.1590   25.3440   18.8410 O      31384 WAT       0.0563
  31385 WAT        26.1590   25.3440   28.3410 O      31385 WAT       0.0457
  31386 WAT        26.1590   25.5940   18.3410 O      31386 WAT       0.0490
  31387 WAT        26.1590   25.5940   18.5910 O      31387 WAT       0.0549
  31388 WAT        26.1590   25.5940   18.8410 O      31388 WAT       0.0493
  31389 WAT        26.1590   25.8440   16.0910 O      31389 WAT       0.0695
  31390 WAT        26.1590   25.8440   16.3410 O      31390 WAT       0.0851
  31391 WAT        26.1590   25.8440   16.5910 O      31391 WAT       0.0740
  31392 WAT        26.1590   25.8440   16.8410 O      31392 WAT       0.0485
  31393 WAT        26.1590   26.0940   15.8410 O      31393 WAT       0.1054
  31394 WAT        26.1590   26.0940   16.0910 O      31394 WAT       0.1741
  31395 WAT        26.1590   26.0940   16.3410 O      31395 WAT       0.1938
  31396 WAT        26.1590   26.0940   16.5910 O      31396 WAT       0.1500
  31397 WAT        26.1590   26.0940   16.8410 O      31397 WAT       0.0844
  31398 WAT        26.1590   26.3440   15.5910 O      31398 WAT       0.0818
  31399 WAT        26.1590   26.3440   15.8410 O      31399 WAT       0.1915
  31400 WAT        26.1590   26.3440   16.0910 O      31400 WAT       0.2946
  31401 WAT        26.1590   26.3440   16.3410 O      31401 WAT       0.3042
  31402 WAT        26.1590   26.3440   16.5910 O      31402 WAT       0.2159
  31403 WAT        26.1590   26.3440   16.8410 O      31403 WAT       0.1092
  31404 WAT        26.1590   26.5940   15.5910 O      31404 WAT       0.1081
  31405 WAT        26.1590   26.5940   15.8410 O      31405 WAT       0.2356
  31406 WAT        26.1590   26.5940   16.0910 O      31406 WAT       0.3392
  31407 WAT        26.1590   26.5940   16.3410 O      31407 WAT       0.3279
  31408 WAT        26.1590   26.5940   16.5910 O      31408 WAT       0.2173
  31409 WAT        26.1590   26.5940   16.8410 O      31409 WAT       0.1018
  31410 WAT        26.1590   26.8440   15.5910 O      31410 WAT       0.0990
  31411 WAT        26.1590   26.8440   15.8410 O      31411 WAT       0.2006
  31412 WAT        26.1590   26.8440   16.0910 O      31412 WAT       0.2700
  31413 WAT        26.1590   26.8440   16.3410 O      31413 WAT       0.2454
  31414 WAT        26.1590   26.8440   16.5910 O      31414 WAT       0.1535
  31415 WAT        26.1590   26.8440   16.8410 O      31415 WAT       0.0678
  31416 WAT        26.1590   26.8440   20.0910 O      31416 WAT       0.0470
  31417 WAT        26.1590   26.8440   20.3410 O      31417 WAT       0.0521
  31418 WAT        26.1590   26.8440   20.5910 O      31418 WAT       0.0565
  31419 WAT        26.1590   26.8440   20.8410 O      31419 WAT       0.0603
  31420 WAT        26.1590   26.8440   21.0910 O      31420 WAT       0.0636
  31421 WAT        26.1590   26.8440   21.3410 O      31421 WAT       0.0654
  31422 WAT        26.1590   26.8440   21.5910 O      31422 WAT       0.0644
  31423 WAT        26.1590   26.8440   21.8410 O      31423 WAT       0.0601
  31424 WAT        26.1590   26.8440   22.0910 O      31424 WAT       0.0542
  31425 WAT        26.1590   26.8440   22.3410 O      31425 WAT       0.0492
  31426 WAT        26.1590   26.8440   22.5910 O      31426 WAT       0.0455
  31427 WAT        26.1590   27.0940   15.5910 O      31427 WAT       0.0654
  31428 WAT        26.1590   27.0940   15.8410 O      31428 WAT       0.1225
  31429 WAT        26.1590   27.0940   16.0910 O      31429 WAT       0.1536
  31430 WAT        26.1590   27.0940   16.3410 O      31430 WAT       0.1313
  31431 WAT        26.1590   27.0940   16.5910 O      31431 WAT       0.0779
  31432 WAT        26.1590   27.0940   19.5910 O      31432 WAT       0.0472
  31433 WAT        26.1590   27.0940   19.8410 O      31433 WAT       0.0549
  31434 WAT        26.1590   27.0940   20.0910 O      31434 WAT       0.0633
  31435 WAT        26.1590   27.0940   20.3410 O      31435 WAT       0.0697
  31436 WAT        26.1590   27.0940   20.5910 O      31436 WAT       0.0729
  31437 WAT        26.1590   27.0940   20.8410 O      31437 WAT       0.0745
  31438 WAT        26.1590   27.0940   21.0910 O      31438 WAT       0.0760
  31439 WAT        26.1590   27.0940   21.3410 O      31439 WAT       0.0770
  31440 WAT        26.1590   27.0940   21.5910 O      31440 WAT       0.0756
  31441 WAT        26.1590   27.0940   21.8410 O      31441 WAT       0.0704
  31442 WAT        26.1590   27.0940   22.0910 O      31442 WAT       0.0626
  31443 WAT        26.1590   27.0940   22.3410 O      31443 WAT       0.0546
  31444 WAT        26.1590   27.0940   22.5910 O      31444 WAT       0.0475
  31445 WAT        26.1590   27.3440   15.8410 O      31445 WAT       0.0569
  31446 WAT        26.1590   27.3440   16.0910 O      31446 WAT       0.0658
  31447 WAT        26.1590   27.3440   16.3410 O      31447 WAT       0.0526
  31448 WAT        26.1590   27.3440   19.5910 O      31448 WAT       0.0508
  31449 WAT        26.1590   27.3440   19.8410 O      31449 WAT       0.0609
  31450 WAT        26.1590   27.3440   20.0910 O      31450 WAT       0.0702
  31451 WAT        26.1590   27.3440   20.3410 O      31451 WAT       0.0750
  31452 WAT        26.1590   27.3440   20.5910 O      31452 WAT       0.0745
  31453 WAT        26.1590   27.3440   20.8410 O      31453 WAT       0.0717
  31454 WAT        26.1590   27.3440   21.0910 O      31454 WAT       0.0699
  31455 WAT        26.1590   27.3440   21.3410 O      31455 WAT       0.0692
  31456 WAT        26.1590   27.3440   21.5910 O      31456 WAT       0.0676
  31457 WAT        26.1590   27.3440   21.8410 O      31457 WAT       0.0629
  31458 WAT        26.1590   27.3440   22.0910 O      31458 WAT       0.0556
  31459 WAT        26.1590   27.3440   22.3410 O      31459 WAT       0.0474
  31460 WAT        26.1590   27.5940   19.5910 O      31460 WAT       0.0472
  31461 WAT        26.1590   27.5940   19.8410 O      31461 WAT       0.0565
  31462 WAT        26.1590   27.5940   20.0910 O      31462 WAT       0.0635
  31463 WAT        26.1590   27.5940   20.3410 O      31463 WAT       0.0650
  31464 WAT        26.1590   27.5940   20.5910 O      31464 WAT       0.0607
  31465 WAT        26.1590   27.5940   20.8410 O      31465 WAT       0.0545
  31466 WAT        26.1590   27.5940   21.0910 O      31466 WAT       0.0501
  31467 WAT        26.1590   27.5940   21.3410 O      31467 WAT       0.0480
  31468 WAT        26.1590   27.5940   21.5910 O      31468 WAT       0.0467
  31469 WAT        26.1590   27.8440   20.0910 O      31469 WAT       0.0478
  31470 WAT        26.1590   27.8440   20.3410 O      31470 WAT       0.0464
  31471 WAT        26.1590   29.5940   14.8410 O      31471 WAT       0.0479
  31472 WAT        26.1590   29.5940   15.0910 O      31472 WAT       0.0514
  31473 WAT        26.1590   29.8440   14.8410 O      31473 WAT       0.0698
  31474 WAT        26.1590   29.8440   15.0910 O      31474 WAT       0.0802
  31475 WAT        26.1590   29.8440   15.3410 O      31475 WAT       0.0659
  31476 WAT        26.1590   29.8440   18.3410 O      31476 WAT       0.0480
  31477 WAT        26.1590   30.0940   14.5910 O      31477 WAT       0.0497
  31478 WAT        26.1590   30.0940   14.8410 O      31478 WAT       0.0910
  31479 WAT        26.1590   30.0940   15.0910 O      31479 WAT       0.1171
  31480 WAT        26.1590   30.0940   15.3410 O      31480 WAT       0.1072
  31481 WAT        26.1590   30.0940   15.5910 O      31481 WAT       0.0708
  31482 WAT        26.1590   30.0940   18.0910 O      31482 WAT       0.0492
  31483 WAT        26.1590   30.0940   18.3410 O      31483 WAT       0.0567
  31484 WAT        26.1590   30.0940   18.5910 O      31484 WAT       0.0498
  31485 WAT        26.1590   30.3440   14.5910 O      31485 WAT       0.0511
  31486 WAT        26.1590   30.3440   14.8410 O      31486 WAT       0.1075
  31487 WAT        26.1590   30.3440   15.0910 O      31487 WAT       0.1586
  31488 WAT        26.1590   30.3440   15.3410 O      31488 WAT       0.1651
  31489 WAT        26.1590   30.3440   15.5910 O      31489 WAT       0.1218
  31490 WAT        26.1590   30.3440   15.8410 O      31490 WAT       0.0644
  31491 WAT        26.1590   30.3440   18.0910 O      31491 WAT       0.0524
  31492 WAT        26.1590   30.3440   18.3410 O      31492 WAT       0.0584
  31493 WAT        26.1590   30.3440   18.5910 O      31493 WAT       0.0491
  31494 WAT        26.1590   30.5940   14.5910 O      31494 WAT       0.0475
  31495 WAT        26.1590   30.5940   14.8410 O      31495 WAT       0.1160
  31496 WAT        26.1590   30.5940   15.0910 O      31496 WAT       0.1961
  31497 WAT        26.1590   30.5940   15.3410 O      31497 WAT       0.2305
  31498 WAT        26.1590   30.5940   15.5910 O      31498 WAT       0.1891
  31499 WAT        26.1590   30.5940   15.8410 O      31499 WAT       0.1091
  31500 WAT        26.1590   30.5940   18.0910 O      31500 WAT       0.0489
  31501 WAT        26.1590   30.5940   18.3410 O      31501 WAT       0.0535
  31502 WAT        26.1590   30.8440   14.8410 O      31502 WAT       0.1144
  31503 WAT        26.1590   30.8440   15.0910 O      31503 WAT       0.2179
  31504 WAT        26.1590   30.8440   15.3410 O      31504 WAT       0.2845
  31505 WAT        26.1590   30.8440   15.5910 O      31505 WAT       0.2553
  31506 WAT        26.1590   30.8440   15.8410 O      31506 WAT       0.1584
  31507 WAT        26.1590   30.8440   16.0910 O      31507 WAT       0.0690
  31508 WAT        26.1590   30.8440   18.3410 O      31508 WAT       0.0459
  31509 WAT        26.1590   30.8440   23.8410 O      31509 WAT       0.0452
  31510 WAT        26.1590   30.8440   24.0910 O      31510 WAT       0.0487
  31511 WAT        26.1590   30.8440   24.3410 O      31511 WAT       0.0515
  31512 WAT        26.1590   30.8440   24.5910 O      31512 WAT       0.0519
  31513 WAT        26.1590   30.8440   24.8410 O      31513 WAT       0.0486
  31514 WAT        26.1590   31.0940   14.8410 O      31514 WAT       0.1030
  31515 WAT        26.1590   31.0940   15.0910 O      31515 WAT       0.2167
  31516 WAT        26.1590   31.0940   15.3410 O      31516 WAT       0.3078
  31517 WAT        26.1590   31.0940   15.5910 O      31517 WAT       0.2964
  31518 WAT        26.1590   31.0940   15.8410 O      31518 WAT       0.1947
  31519 WAT        26.1590   31.0940   16.0910 O      31519 WAT       0.0887
  31520 WAT        26.1590   31.0940   23.5910 O      31520 WAT       0.0487
  31521 WAT        26.1590   31.0940   23.8410 O      31521 WAT       0.0530
  31522 WAT        26.1590   31.0940   24.0910 O      31522 WAT       0.0554
  31523 WAT        26.1590   31.0940   24.3410 O      31523 WAT       0.0565
  31524 WAT        26.1590   31.0940   24.5910 O      31524 WAT       0.0554
  31525 WAT        26.1590   31.0940   24.8410 O      31525 WAT       0.0512
  31526 WAT        26.1590   31.3440   14.8410 O      31526 WAT       0.0856
  31527 WAT        26.1590   31.3440   15.0910 O      31527 WAT       0.1938
  31528 WAT        26.1590   31.3440   15.3410 O      31528 WAT       0.2924
  31529 WAT        26.1590   31.3440   15.5910 O      31529 WAT       0.2960
  31530 WAT        26.1590   31.3440   15.8410 O      31530 WAT       0.2025
  31531 WAT        26.1590   31.3440   16.0910 O      31531 WAT       0.0954
  31532 WAT        26.1590   31.3440   23.3410 O      31532 WAT       0.0460
  31533 WAT        26.1590   31.3440   23.5910 O      31533 WAT       0.0520
  31534 WAT        26.1590   31.3440   23.8410 O      31534 WAT       0.0555
  31535 WAT        26.1590   31.3440   24.0910 O      31535 WAT       0.0566
  31536 WAT        26.1590   31.3440   24.3410 O      31536 WAT       0.0564
  31537 WAT        26.1590   31.3440   24.5910 O      31537 WAT       0.0548
  31538 WAT        26.1590   31.3440   24.8410 O      31538 WAT       0.0509
  31539 WAT        26.1590   31.5940   14.8410 O      31539 WAT       0.0663
  31540 WAT        26.1590   31.5940   15.0910 O      31540 WAT       0.1572
  31541 WAT        26.1590   31.5940   15.3410 O      31541 WAT       0.2459
  31542 WAT        26.1590   31.5940   15.5910 O      31542 WAT       0.2563
  31543 WAT        26.1590   31.5940   15.8410 O      31543 WAT       0.1797
  31544 WAT        26.1590   31.5940   16.0910 O      31544 WAT       0.0866
  31545 WAT        26.1590   31.5940   23.3410 O      31545 WAT       0.0458
  31546 WAT        26.1590   31.5940   23.5910 O      31546 WAT       0.0508
  31547 WAT        26.1590   31.5940   23.8410 O      31547 WAT       0.0533
  31548 WAT        26.1590   31.5940   24.0910 O      31548 WAT       0.0533
  31549 WAT        26.1590   31.5940   24.3410 O      31549 WAT       0.0522
  31550 WAT        26.1590   31.5940   24.5910 O      31550 WAT       0.0507
  31551 WAT        26.1590   31.5940   24.8410 O      31551 WAT       0.0477
  31552 WAT        26.1590   31.8440   14.8410 O      31552 WAT       0.0491
  31553 WAT        26.1590   31.8440   15.0910 O      31553 WAT       0.1185
  31554 WAT        26.1590   31.8440   15.3410 O      31554 WAT       0.1874
  31555 WAT        26.1590   31.8440   15.5910 O      31555 WAT       0.1970
  31556 WAT        26.1590   31.8440   15.8410 O      31556 WAT       0.1394
  31557 WAT        26.1590   31.8440   16.0910 O      31557 WAT       0.0678
  31558 WAT        26.1590   31.8440   23.5910 O      31558 WAT       0.0466
  31559 WAT        26.1590   31.8440   23.8410 O      31559 WAT       0.0482
  31560 WAT        26.1590   31.8440   24.0910 O      31560 WAT       0.0473
  31561 WAT        26.1590   31.8440   24.3410 O      31561 WAT       0.0456
  31562 WAT        26.1590   32.0940   15.0910 O      31562 WAT       0.0875
  31563 WAT        26.1590   32.0940   15.3410 O      31563 WAT       0.1361
  31564 WAT        26.1590   32.0940   15.5910 O      31564 WAT       0.1413
  31565 WAT        26.1590   32.0940   15.8410 O      31565 WAT       0.0993
  31566 WAT        26.1590   32.0940   16.0910 O      31566 WAT       0.0484
  31567 WAT        26.1590   32.3440   15.0910 O      31567 WAT       0.0680
  31568 WAT        26.1590   32.3440   15.3410 O      31568 WAT       0.1008
  31569 WAT        26.1590   32.3440   15.5910 O      31569 WAT       0.1010
  31570 WAT        26.1590   32.3440   15.8410 O      31570 WAT       0.0695
  31571 WAT        26.1590   32.5940   15.0910 O      31571 WAT       0.0598
  31572 WAT        26.1590   32.5940   15.3410 O      31572 WAT       0.0809
  31573 WAT        26.1590   32.5940   15.5910 O      31573 WAT       0.0760
  31574 WAT        26.1590   32.5940   15.8410 O      31574 WAT       0.0504
  31575 WAT        26.1590   32.8440   15.0910 O      31575 WAT       0.0602
  31576 WAT        26.1590   32.8440   15.3410 O      31576 WAT       0.0715
  31577 WAT        26.1590   32.8440   15.5910 O      31577 WAT       0.0611
  31578 WAT        26.1590   32.8440   17.8410 O      31578 WAT       0.0460
  31579 WAT        26.1590   33.0940   14.8410 O      31579 WAT       0.0457
  31580 WAT        26.1590   33.0940   15.0910 O      31580 WAT       0.0640
  31581 WAT        26.1590   33.0940   15.3410 O      31581 WAT       0.0660
  31582 WAT        26.1590   33.0940   15.5910 O      31582 WAT       0.0506
  31583 WAT        26.1590   33.0940   17.5910 O      31583 WAT       0.0452
  31584 WAT        26.1590   33.0940   17.8410 O      31584 WAT       0.0474
  31585 WAT        26.1590   33.3440   11.0910 O      31585 WAT       0.0465
  31586 WAT        26.1590   33.3440   11.3410 O      31586 WAT       0.0619
  31587 WAT        26.1590   33.3440   11.5910 O      31587 WAT       0.0587
  31588 WAT        26.1590   33.3440   14.8410 O      31588 WAT       0.0548
  31589 WAT        26.1590   33.3440   15.0910 O      31589 WAT       0.0658
  31590 WAT        26.1590   33.3440   15.3410 O      31590 WAT       0.0594
  31591 WAT        26.1590   33.3440   17.8410 O      31591 WAT       0.0467
  31592 WAT        26.1590   33.5940   10.8410 O      31592 WAT       0.0463
  31593 WAT        26.1590   33.5940   11.0910 O      31593 WAT       0.0910
  31594 WAT        26.1590   33.5940   11.3410 O      31594 WAT       0.1247
  31595 WAT        26.1590   33.5940   11.5910 O      31595 WAT       0.1221
  31596 WAT        26.1590   33.5940   11.8410 O      31596 WAT       0.0885
  31597 WAT        26.1590   33.5940   12.0910 O      31597 WAT       0.0503
  31598 WAT        26.1590   33.5940   14.8410 O      31598 WAT       0.0590
  31599 WAT        26.1590   33.5940   15.0910 O      31599 WAT       0.0617
  31600 WAT        26.1590   33.5940   15.3410 O      31600 WAT       0.0498
  31601 WAT        26.1590   33.8440   10.8410 O      31601 WAT       0.0589
  31602 WAT        26.1590   33.8440   11.0910 O      31602 WAT       0.1197
  31603 WAT        26.1590   33.8440   11.3410 O      31603 WAT       0.1706
  31604 WAT        26.1590   33.8440   11.5910 O      31604 WAT       0.1746
  31605 WAT        26.1590   33.8440   11.8410 O      31605 WAT       0.1323
  31606 WAT        26.1590   33.8440   12.0910 O      31606 WAT       0.0778
  31607 WAT        26.1590   33.8440   14.5910 O      31607 WAT       0.0470
  31608 WAT        26.1590   33.8440   14.8410 O      31608 WAT       0.0554
  31609 WAT        26.1590   33.8440   15.0910 O      31609 WAT       0.0516
  31610 WAT        26.1590   34.0940   10.8410 O      31610 WAT       0.0505
  31611 WAT        26.1590   34.0940   11.0910 O      31611 WAT       0.1072
  31612 WAT        26.1590   34.0940   11.3410 O      31612 WAT       0.1601
  31613 WAT        26.1590   34.0940   11.5910 O      31613 WAT       0.1728
  31614 WAT        26.1590   34.0940   11.8410 O      31614 WAT       0.1388
  31615 WAT        26.1590   34.0940   12.0910 O      31615 WAT       0.0862
  31616 WAT        26.1590   34.0940   14.8410 O      31616 WAT       0.0460
  31617 WAT        26.1590   34.3440   11.0910 O      31617 WAT       0.0658
  31618 WAT        26.1590   34.3440   11.3410 O      31618 WAT       0.1039
  31619 WAT        26.1590   34.3440   11.5910 O      31619 WAT       0.1193
  31620 WAT        26.1590   34.3440   11.8410 O      31620 WAT       0.1024
  31621 WAT        26.1590   34.3440   12.0910 O      31621 WAT       0.0682
  31622 WAT        26.1590   34.5940   11.3410 O      31622 WAT       0.0471
  31623 WAT        26.1590   34.5940   11.5910 O      31623 WAT       0.0580
  31624 WAT        26.1590   34.5940   11.8410 O      31624 WAT       0.0536
  31625 WAT        26.4090    9.5940   28.5910 O      31625 WAT       0.0457
  31626 WAT        26.4090    9.5940   28.8410 O      31626 WAT       0.0481
  31627 WAT        26.4090    9.8440   28.5910 O      31627 WAT       0.0480
  31628 WAT        26.4090    9.8440   28.8410 O      31628 WAT       0.0514
  31629 WAT        26.4090    9.8440   29.0910 O      31629 WAT       0.0471
  31630 WAT        26.4090   10.0940   25.3410 O      31630 WAT       0.0457
  31631 WAT        26.4090   10.0940   28.5910 O      31631 WAT       0.0492
  31632 WAT        26.4090   10.0940   28.8410 O      31632 WAT       0.0545
  31633 WAT        26.4090   10.0940   29.0910 O      31633 WAT       0.0510
  31634 WAT        26.4090   10.3440   25.3410 O      31634 WAT       0.0491
  31635 WAT        26.4090   10.3440   25.5910 O      31635 WAT       0.0495
  31636 WAT        26.4090   10.3440   28.5910 O      31636 WAT       0.0487
  31637 WAT        26.4090   10.3440   28.8410 O      31637 WAT       0.0559
  31638 WAT        26.4090   10.3440   29.0910 O      31638 WAT       0.0539
  31639 WAT        26.4090   10.5940   25.3410 O      31639 WAT       0.0479
  31640 WAT        26.4090   10.5940   25.5910 O      31640 WAT       0.0506
  31641 WAT        26.4090   10.5940   25.8410 O      31641 WAT       0.0467
  31642 WAT        26.4090   10.5940   28.5910 O      31642 WAT       0.0455
  31643 WAT        26.4090   10.5940   28.8410 O      31643 WAT       0.0543
  31644 WAT        26.4090   10.5940   29.0910 O      31644 WAT       0.0543
  31645 WAT        26.4090   10.8440   25.5910 O      31645 WAT       0.0475
  31646 WAT        26.4090   10.8440   25.8410 O      31646 WAT       0.0452
  31647 WAT        26.4090   10.8440   28.8410 O      31647 WAT       0.0495
  31648 WAT        26.4090   10.8440   29.0910 O      31648 WAT       0.0517
  31649 WAT        26.4090   11.0940   29.0910 O      31649 WAT       0.0469
  31650 WAT        26.4090   12.5940   20.8410 O      31650 WAT       0.0464
  31651 WAT        26.4090   12.8440   20.8410 O      31651 WAT       0.0473
  31652 WAT        26.4090   13.0940   20.5910 O      31652 WAT       0.0451
  31653 WAT        26.4090   13.0940   20.8410 O      31653 WAT       0.0482
  31654 WAT        26.4090   13.3440   20.5910 O      31654 WAT       0.0450
  31655 WAT        26.4090   13.3440   20.8410 O      31655 WAT       0.0488
  31656 WAT        26.4090   13.3440   21.0910 O      31656 WAT       0.0458
  31657 WAT        26.4090   13.5940   14.5910 O      31657 WAT       0.0473
  31658 WAT        26.4090   13.5940   14.8410 O      31658 WAT       0.0497
  31659 WAT        26.4090   13.5940   15.0910 O      31659 WAT       0.0505
  31660 WAT        26.4090   13.5940   15.3410 O      31660 WAT       0.0495
  31661 WAT        26.4090   13.5940   15.5910 O      31661 WAT       0.0472
  31662 WAT        26.4090   13.5940   20.8410 O      31662 WAT       0.0491
  31663 WAT        26.4090   13.5940   21.0910 O      31663 WAT       0.0475
  31664 WAT        26.4090   13.5940   25.5910 O      31664 WAT       0.0457
  31665 WAT        26.4090   13.5940   25.8410 O      31665 WAT       0.0477
  31666 WAT        26.4090   13.8440   14.0910 O      31666 WAT       0.0473
  31667 WAT        26.4090   13.8440   14.3410 O      31667 WAT       0.0504
  31668 WAT        26.4090   13.8440   14.5910 O      31668 WAT       0.0523
  31669 WAT        26.4090   13.8440   14.8410 O      31669 WAT       0.0532
  31670 WAT        26.4090   13.8440   15.0910 O      31670 WAT       0.0532
  31671 WAT        26.4090   13.8440   15.3410 O      31671 WAT       0.0522
  31672 WAT        26.4090   13.8440   15.5910 O      31672 WAT       0.0504
  31673 WAT        26.4090   13.8440   15.8410 O      31673 WAT       0.0479
  31674 WAT        26.4090   13.8440   16.0910 O      31674 WAT       0.0454
  31675 WAT        26.4090   13.8440   20.8410 O      31675 WAT       0.0493
  31676 WAT        26.4090   13.8440   21.0910 O      31676 WAT       0.0493
  31677 WAT        26.4090   13.8440   25.5910 O      31677 WAT       0.0473
  31678 WAT        26.4090   13.8440   25.8410 O      31678 WAT       0.0476
  31679 WAT        26.4090   14.0940   13.5910 O      31679 WAT       0.0465
  31680 WAT        26.4090   14.0940   13.8410 O      31680 WAT       0.0502
  31681 WAT        26.4090   14.0940   14.0910 O      31681 WAT       0.0514
  31682 WAT        26.4090   14.0940   14.3410 O      31682 WAT       0.0509
  31683 WAT        26.4090   14.0940   14.5910 O      31683 WAT       0.0495
  31684 WAT        26.4090   14.0940   14.8410 O      31684 WAT       0.0483
  31685 WAT        26.4090   14.0940   15.0910 O      31685 WAT       0.0475
  31686 WAT        26.4090   14.0940   15.3410 O      31686 WAT       0.0465
  31687 WAT        26.4090   14.0940   15.5910 O      31687 WAT       0.0455
  31688 WAT        26.4090   14.0940   20.8410 O      31688 WAT       0.0492
  31689 WAT        26.4090   14.0940   21.0910 O      31689 WAT       0.0507
  31690 WAT        26.4090   14.0940   21.3410 O      31690 WAT       0.0459
  31691 WAT        26.4090   14.0940   25.5910 O      31691 WAT       0.0469
  31692 WAT        26.4090   14.3440   13.3410 O      31692 WAT       0.0469
  31693 WAT        26.4090   14.3440   13.5910 O      31693 WAT       0.0503
  31694 WAT        26.4090   14.3440   13.8410 O      31694 WAT       0.0493
  31695 WAT        26.4090   14.3440   14.0910 O      31695 WAT       0.0460
  31696 WAT        26.4090   14.3440   16.8410 O      31696 WAT       0.0452
  31697 WAT        26.4090   14.3440   20.8410 O      31697 WAT       0.0476
  31698 WAT        26.4090   14.3440   21.0910 O      31698 WAT       0.0501
  31699 WAT        26.4090   14.3440   21.3410 O      31699 WAT       0.0470
  31700 WAT        26.4090   14.3440   25.0910 O      31700 WAT       0.0477
  31701 WAT        26.4090   14.3440   25.3410 O      31701 WAT       0.0485
  31702 WAT        26.4090   14.3440   25.5910 O      31702 WAT       0.0457
  31703 WAT        26.4090   14.5940   13.3410 O      31703 WAT       0.0466
  31704 WAT        26.4090   14.5940   17.0910 O      31704 WAT       0.0460
  31705 WAT        26.4090   14.5940   17.3410 O      31705 WAT       0.0471
  31706 WAT        26.4090   14.5940   17.5910 O      31706 WAT       0.0454
  31707 WAT        26.4090   14.5940   21.0910 O      31707 WAT       0.0466
  31708 WAT        26.4090   14.5940   21.3410 O      31708 WAT       0.0452
  31709 WAT        26.4090   14.5940   24.5910 O      31709 WAT       0.0514
  31710 WAT        26.4090   14.5940   24.8410 O      31710 WAT       0.0566
  31711 WAT        26.4090   14.5940   25.0910 O      31711 WAT       0.0568
  31712 WAT        26.4090   14.5940   25.3410 O      31712 WAT       0.0518
  31713 WAT        26.4090   14.8440   17.3410 O      31713 WAT       0.0477
  31714 WAT        26.4090   14.8440   17.5910 O      31714 WAT       0.0503
  31715 WAT        26.4090   14.8440   17.8410 O      31715 WAT       0.0488
  31716 WAT        26.4090   14.8440   24.3410 O      31716 WAT       0.0567
  31717 WAT        26.4090   14.8440   24.5910 O      31717 WAT       0.0664
  31718 WAT        26.4090   14.8440   24.8410 O      31718 WAT       0.0692
  31719 WAT        26.4090   14.8440   25.0910 O      31719 WAT       0.0641
  31720 WAT        26.4090   14.8440   25.3410 O      31720 WAT       0.0536
  31721 WAT        26.4090   15.0940   17.5910 O      31721 WAT       0.0494
  31722 WAT        26.4090   15.0940   17.8410 O      31722 WAT       0.0522
  31723 WAT        26.4090   15.0940   18.0910 O      31723 WAT       0.0494
  31724 WAT        26.4090   15.0940   24.0910 O      31724 WAT       0.0530
  31725 WAT        26.4090   15.0940   24.3410 O      31725 WAT       0.0676
  31726 WAT        26.4090   15.0940   24.5910 O      31726 WAT       0.0767
  31727 WAT        26.4090   15.0940   24.8410 O      31727 WAT       0.0764
  31728 WAT        26.4090   15.0940   25.0910 O      31728 WAT       0.0668
  31729 WAT        26.4090   15.0940   25.3410 O      31729 WAT       0.0520
  31730 WAT        26.4090   15.3440   17.8410 O      31730 WAT       0.0490
  31731 WAT        26.4090   15.3440   18.0910 O      31731 WAT       0.0507
  31732 WAT        26.4090   15.3440   18.3410 O      31732 WAT       0.0470
  31733 WAT        26.4090   15.3440   24.0910 O      31733 WAT       0.0579
  31734 WAT        26.4090   15.3440   24.3410 O      31734 WAT       0.0714
  31735 WAT        26.4090   15.3440   24.5910 O      31735 WAT       0.0782
  31736 WAT        26.4090   15.3440   24.8410 O      31736 WAT       0.0751
  31737 WAT        26.4090   15.3440   25.0910 O      31737 WAT       0.0627
  31738 WAT        26.4090   15.3440   25.3410 O      31738 WAT       0.0463
  31739 WAT        26.4090   15.5940   18.0910 O      31739 WAT       0.0461
  31740 WAT        26.4090   15.5940   18.3410 O      31740 WAT       0.0465
  31741 WAT        26.4090   15.5940   24.0910 O      31741 WAT       0.0572
  31742 WAT        26.4090   15.5940   24.3410 O      31742 WAT       0.0679
  31743 WAT        26.4090   15.5940   24.5910 O      31743 WAT       0.0718
  31744 WAT        26.4090   15.5940   24.8410 O      31744 WAT       0.0665
  31745 WAT        26.4090   15.5940   25.0910 O      31745 WAT       0.0537
  31746 WAT        26.4090   15.8440   24.0910 O      31746 WAT       0.0521
  31747 WAT        26.4090   15.8440   24.3410 O      31747 WAT       0.0598
  31748 WAT        26.4090   15.8440   24.5910 O      31748 WAT       0.0610
  31749 WAT        26.4090   15.8440   24.8410 O      31749 WAT       0.0549
  31750 WAT        26.4090   16.0940   24.3410 O      31750 WAT       0.0502
  31751 WAT        26.4090   16.0940   24.5910 O      31751 WAT       0.0498
  31752 WAT        26.4090   16.8440   28.5910 O      31752 WAT       0.0464
  31753 WAT        26.4090   17.0940    8.5910 O      31753 WAT       0.0483
  31754 WAT        26.4090   17.0940   28.3410 O      31754 WAT       0.0502
  31755 WAT        26.4090   17.0940   28.5910 O      31755 WAT       0.0560
  31756 WAT        26.4090   17.0940   28.8410 O      31756 WAT       0.0541
  31757 WAT        26.4090   17.3440    8.3410 O      31757 WAT       0.0513
  31758 WAT        26.4090   17.3440    8.5910 O      31758 WAT       0.0532
  31759 WAT        26.4090   17.3440   28.3410 O      31759 WAT       0.0517
  31760 WAT        26.4090   17.3440   28.5910 O      31760 WAT       0.0606
  31761 WAT        26.4090   17.3440   28.8410 O      31761 WAT       0.0606
  31762 WAT        26.4090   17.3440   29.0910 O      31762 WAT       0.0508
  31763 WAT        26.4090   17.5940    8.3410 O      31763 WAT       0.0497
  31764 WAT        26.4090   17.5940    8.5910 O      31764 WAT       0.0469
  31765 WAT        26.4090   17.5940   28.3410 O      31765 WAT       0.0471
  31766 WAT        26.4090   17.5940   28.5910 O      31766 WAT       0.0575
  31767 WAT        26.4090   17.5940   28.8410 O      31767 WAT       0.0597
  31768 WAT        26.4090   17.5940   29.0910 O      31768 WAT       0.0516
  31769 WAT        26.4090   17.8440   28.5910 O      31769 WAT       0.0478
  31770 WAT        26.4090   17.8440   28.8410 O      31770 WAT       0.0512
  31771 WAT        26.4090   17.8440   29.0910 O      31771 WAT       0.0459
  31772 WAT        26.4090   18.8440    6.0910 O      31772 WAT       0.0641
  31773 WAT        26.4090   18.8440    6.3410 O      31773 WAT       0.0817
  31774 WAT        26.4090   18.8440    6.5910 O      31774 WAT       0.0772
  31775 WAT        26.4090   18.8440    6.8410 O      31775 WAT       0.0528
  31776 WAT        26.4090   19.0940    5.5910 O      31776 WAT       0.0460
  31777 WAT        26.4090   19.0940    5.8410 O      31777 WAT       0.0869
  31778 WAT        26.4090   19.0940    6.0910 O      31778 WAT       0.1323
  31779 WAT        26.4090   19.0940    6.3410 O      31779 WAT       0.1550
  31780 WAT        26.4090   19.0940    6.5910 O      31780 WAT       0.1339
  31781 WAT        26.4090   19.0940    6.8410 O      31781 WAT       0.0831
  31782 WAT        26.4090   19.3440    3.0910 O      31782 WAT       0.0483
  31783 WAT        26.4090   19.3440    3.3410 O      31783 WAT       0.0612
  31784 WAT        26.4090   19.3440    3.5910 O      31784 WAT       0.0641
  31785 WAT        26.4090   19.3440    3.8410 O      31785 WAT       0.0534
  31786 WAT        26.4090   19.3440    5.5910 O      31786 WAT       0.0818
  31787 WAT        26.4090   19.3440    5.8410 O      31787 WAT       0.1415
  31788 WAT        26.4090   19.3440    6.0910 O      31788 WAT       0.1966
  31789 WAT        26.4090   19.3440    6.3410 O      31789 WAT       0.2101
  31790 WAT        26.4090   19.3440    6.5910 O      31790 WAT       0.1662
  31791 WAT        26.4090   19.3440    6.8410 O      31791 WAT       0.0945
  31792 WAT        26.4090   19.5940    3.0910 O      31792 WAT       0.0602
  31793 WAT        26.4090   19.5940    3.3410 O      31793 WAT       0.0767
  31794 WAT        26.4090   19.5940    3.5910 O      31794 WAT       0.0803
  31795 WAT        26.4090   19.5940    3.8410 O      31795 WAT       0.0665
  31796 WAT        26.4090   19.5940    5.3410 O      31796 WAT       0.0544
  31797 WAT        26.4090   19.5940    5.5910 O      31797 WAT       0.1024
  31798 WAT        26.4090   19.5940    5.8410 O      31798 WAT       0.1609
  31799 WAT        26.4090   19.5940    6.0910 O      31799 WAT       0.2021
  31800 WAT        26.4090   19.5940    6.3410 O      31800 WAT       0.1956
  31801 WAT        26.4090   19.5940    6.5910 O      31801 WAT       0.1410
  31802 WAT        26.4090   19.5940    6.8410 O      31802 WAT       0.0733
  31803 WAT        26.4090   19.8440    3.0910 O      31803 WAT       0.0618
  31804 WAT        26.4090   19.8440    3.3410 O      31804 WAT       0.0773
  31805 WAT        26.4090   19.8440    3.5910 O      31805 WAT       0.0795
  31806 WAT        26.4090   19.8440    3.8410 O      31806 WAT       0.0646
  31807 WAT        26.4090   19.8440    5.3410 O      31807 WAT       0.0516
  31808 WAT        26.4090   19.8440    5.5910 O      31808 WAT       0.0887
  31809 WAT        26.4090   19.8440    5.8410 O      31809 WAT       0.1254
  31810 WAT        26.4090   19.8440    6.0910 O      31810 WAT       0.1410
  31811 WAT        26.4090   19.8440    6.3410 O      31811 WAT       0.1224
  31812 WAT        26.4090   19.8440    6.5910 O      31812 WAT       0.0796
  31813 WAT        26.4090   20.0940    3.0910 O      31813 WAT       0.0521
  31814 WAT        26.4090   20.0940    3.3410 O      31814 WAT       0.0621
  31815 WAT        26.4090   20.0940    3.5910 O      31815 WAT       0.0612
  31816 WAT        26.4090   20.0940    3.8410 O      31816 WAT       0.0480
  31817 WAT        26.4090   20.0940    5.5910 O      31817 WAT       0.0526
  31818 WAT        26.4090   20.0940    5.8410 O      31818 WAT       0.0662
  31819 WAT        26.4090   20.0940    6.0910 O      31819 WAT       0.0658
  31820 WAT        26.4090   20.0940    6.3410 O      31820 WAT       0.0505
  31821 WAT        26.4090   20.8440   19.3410 O      31821 WAT       0.0493
  31822 WAT        26.4090   21.0940   18.8410 O      31822 WAT       0.0463
  31823 WAT        26.4090   21.0940   19.0910 O      31823 WAT       0.0615
  31824 WAT        26.4090   21.0940   19.3410 O      31824 WAT       0.0686
  31825 WAT        26.4090   21.0940   19.5910 O      31825 WAT       0.0616
  31826 WAT        26.4090   21.3440   18.8410 O      31826 WAT       0.0604
  31827 WAT        26.4090   21.3440   19.0910 O      31827 WAT       0.0832
  31828 WAT        26.4090   21.3440   19.3410 O      31828 WAT       0.0937
  31829 WAT        26.4090   21.3440   19.5910 O      31829 WAT       0.0841
  31830 WAT        26.4090   21.3440   19.8410 O      31830 WAT       0.0591
  31831 WAT        26.4090   21.5940   18.8410 O      31831 WAT       0.0761
  31832 WAT        26.4090   21.5940   19.0910 O      31832 WAT       0.1076
  31833 WAT        26.4090   21.5940   19.3410 O      31833 WAT       0.1217
  31834 WAT        26.4090   21.5940   19.5910 O      31834 WAT       0.1092
  31835 WAT        26.4090   21.5940   19.8410 O      31835 WAT       0.0770
  31836 WAT        26.4090   21.8440   18.5910 O      31836 WAT       0.0479
  31837 WAT        26.4090   21.8440   18.8410 O      31837 WAT       0.0891
  31838 WAT        26.4090   21.8440   19.0910 O      31838 WAT       0.1285
  31839 WAT        26.4090   21.8440   19.3410 O      31839 WAT       0.1461
  31840 WAT        26.4090   21.8440   19.5910 O      31840 WAT       0.1315
  31841 WAT        26.4090   21.8440   19.8410 O      31841 WAT       0.0936
  31842 WAT        26.4090   21.8440   20.0910 O      31842 WAT       0.0527
  31843 WAT        26.4090   21.8440   29.0910 O      31843 WAT       0.0459
  31844 WAT        26.4090   22.0940   18.5910 O      31844 WAT       0.0485
  31845 WAT        26.4090   22.0940   18.8410 O      31845 WAT       0.0937
  31846 WAT        26.4090   22.0940   19.0910 O      31846 WAT       0.1377
  31847 WAT        26.4090   22.0940   19.3410 O      31847 WAT       0.1577
  31848 WAT        26.4090   22.0940   19.5910 O      31848 WAT       0.1431
  31849 WAT        26.4090   22.0940   19.8410 O      31849 WAT       0.1037
  31850 WAT        26.4090   22.0940   20.0910 O      31850 WAT       0.0603
  31851 WAT        26.4090   22.3440   18.8410 O      31851 WAT       0.0865
  31852 WAT        26.4090   22.3440   19.0910 O      31852 WAT       0.1292
  31853 WAT        26.4090   22.3440   19.3410 O      31853 WAT       0.1494
  31854 WAT        26.4090   22.3440   19.5910 O      31854 WAT       0.1376
  31855 WAT        26.4090   22.3440   19.8410 O      31855 WAT       0.1024
  31856 WAT        26.4090   22.3440   20.0910 O      31856 WAT       0.0622
  31857 WAT        26.4090   22.5940   18.8410 O      31857 WAT       0.0692
  31858 WAT        26.4090   22.5940   19.0910 O      31858 WAT       0.1048
  31859 WAT        26.4090   22.5940   19.3410 O      31859 WAT       0.1228
  31860 WAT        26.4090   22.5940   19.5910 O      31860 WAT       0.1156
  31861 WAT        26.4090   22.5940   19.8410 O      31861 WAT       0.0893
  31862 WAT        26.4090   22.5940   20.0910 O      31862 WAT       0.0572
  31863 WAT        26.4090   22.8440   18.8410 O      31863 WAT       0.0484
  31864 WAT        26.4090   22.8440   19.0910 O      31864 WAT       0.0739
  31865 WAT        26.4090   22.8440   19.3410 O      31865 WAT       0.0882
  31866 WAT        26.4090   22.8440   19.5910 O      31866 WAT       0.0857
  31867 WAT        26.4090   22.8440   19.8410 O      31867 WAT       0.0696
  31868 WAT        26.4090   22.8440   20.0910 O      31868 WAT       0.0477
  31869 WAT        26.4090   23.0940   19.0910 O      31869 WAT       0.0473
  31870 WAT        26.4090   23.0940   19.3410 O      31870 WAT       0.0574
  31871 WAT        26.4090   23.0940   19.5910 O      31871 WAT       0.0582
  31872 WAT        26.4090   23.0940   19.8410 O      31872 WAT       0.0504
  31873 WAT        26.4090   23.3440   23.8410 O      31873 WAT       0.0537
  31874 WAT        26.4090   23.3440   24.0910 O      31874 WAT       0.0545
  31875 WAT        26.4090   23.3440   24.3410 O      31875 WAT       0.0463
  31876 WAT        26.4090   23.5940   23.5910 O      31876 WAT       0.0575
  31877 WAT        26.4090   23.5940   23.8410 O      31877 WAT       0.0724
  31878 WAT        26.4090   23.5940   24.0910 O      31878 WAT       0.0759
  31879 WAT        26.4090   23.5940   24.3410 O      31879 WAT       0.0672
  31880 WAT        26.4090   23.5940   24.5910 O      31880 WAT       0.0514
  31881 WAT        26.4090   23.8440    2.5910 O      31881 WAT       0.0564
  31882 WAT        26.4090   23.8440    2.8410 O      31882 WAT       0.0464
  31883 WAT        26.4090   23.8440   23.5910 O      31883 WAT       0.0625
  31884 WAT        26.4090   23.8440   23.8410 O      31884 WAT       0.0806
  31885 WAT        26.4090   23.8440   24.0910 O      31885 WAT       0.0882
  31886 WAT        26.4090   23.8440   24.3410 O      31886 WAT       0.0825
  31887 WAT        26.4090   23.8440   24.5910 O      31887 WAT       0.0675
  31888 WAT        26.4090   23.8440   24.8410 O      31888 WAT       0.0499
  31889 WAT        26.4090   24.0940    2.5910 O      31889 WAT       0.1017
  31890 WAT        26.4090   24.0940    2.8410 O      31890 WAT       0.0793
  31891 WAT        26.4090   24.0940   21.5910 O      31891 WAT       0.0469
  31892 WAT        26.4090   24.0940   21.8410 O      31892 WAT       0.0494
  31893 WAT        26.4090   24.0940   22.0910 O      31893 WAT       0.0456
  31894 WAT        26.4090   24.0940   23.5910 O      31894 WAT       0.0536
  31895 WAT        26.4090   24.0940   23.8410 O      31895 WAT       0.0709
  31896 WAT        26.4090   24.0940   24.0910 O      31896 WAT       0.0818
  31897 WAT        26.4090   24.0940   24.3410 O      31897 WAT       0.0820
  31898 WAT        26.4090   24.0940   24.5910 O      31898 WAT       0.0726
  31899 WAT        26.4090   24.0940   24.8410 O      31899 WAT       0.0583
  31900 WAT        26.4090   24.3440    2.5910 O      31900 WAT       0.1688
  31901 WAT        26.4090   24.3440    2.8410 O      31901 WAT       0.1281
  31902 WAT        26.4090   24.3440    3.0910 O      31902 WAT       0.0700
  31903 WAT        26.4090   24.3440   18.0910 O      31903 WAT       0.0555
  31904 WAT        26.4090   24.3440   18.3410 O      31904 WAT       0.0638
  31905 WAT        26.4090   24.3440   18.5910 O      31905 WAT       0.0581
  31906 WAT        26.4090   24.3440   21.5910 O      31906 WAT       0.0520
  31907 WAT        26.4090   24.3440   21.8410 O      31907 WAT       0.0535
  31908 WAT        26.4090   24.3440   22.0910 O      31908 WAT       0.0482
  31909 WAT        26.4090   24.3440   23.8410 O      31909 WAT       0.0489
  31910 WAT        26.4090   24.3440   24.0910 O      31910 WAT       0.0595
  31911 WAT        26.4090   24.3440   24.3410 O      31911 WAT       0.0642
  31912 WAT        26.4090   24.3440   24.5910 O      31912 WAT       0.0617
  31913 WAT        26.4090   24.3440   24.8410 O      31913 WAT       0.0539
  31914 WAT        26.4090   24.5940    2.5910 O      31914 WAT       0.2354
  31915 WAT        26.4090   24.5940    2.8410 O      31915 WAT       0.1758
  31916 WAT        26.4090   24.5940    3.0910 O      31916 WAT       0.0940
  31917 WAT        26.4090   24.5940   17.8410 O      31917 WAT       0.0567
  31918 WAT        26.4090   24.5940   18.0910 O      31918 WAT       0.0810
  31919 WAT        26.4090   24.5940   18.3410 O      31919 WAT       0.0906
  31920 WAT        26.4090   24.5940   18.5910 O      31920 WAT       0.0804
  31921 WAT        26.4090   24.5940   18.8410 O      31921 WAT       0.0582
  31922 WAT        26.4090   24.5940   21.5910 O      31922 WAT       0.0478
  31923 WAT        26.4090   24.5940   21.8410 O      31923 WAT       0.0471
  31924 WAT        26.4090   24.8440    2.5910 O      31924 WAT       0.2585
  31925 WAT        26.4090   24.8440    2.8410 O      31925 WAT       0.1902
  31926 WAT        26.4090   24.8440    3.0910 O      31926 WAT       0.0997
  31927 WAT        26.4090   24.8440   17.8410 O      31927 WAT       0.0676
  31928 WAT        26.4090   24.8440   18.0910 O      31928 WAT       0.0949
  31929 WAT        26.4090   24.8440   18.3410 O      31929 WAT       0.1066
  31930 WAT        26.4090   24.8440   18.5910 O      31930 WAT       0.0957
  31931 WAT        26.4090   24.8440   18.8410 O      31931 WAT       0.0698
  31932 WAT        26.4090   25.0940    2.5910 O      31932 WAT       0.2142
  31933 WAT        26.4090   25.0940    2.8410 O      31933 WAT       0.1551
  31934 WAT        26.4090   25.0940    3.0910 O      31934 WAT       0.0794
  31935 WAT        26.4090   25.0940   17.8410 O      31935 WAT       0.0641
  31936 WAT        26.4090   25.0940   18.0910 O      31936 WAT       0.0904
  31937 WAT        26.4090   25.0940   18.3410 O      31937 WAT       0.1047
  31938 WAT        26.4090   25.0940   18.5910 O      31938 WAT       0.0979
  31939 WAT        26.4090   25.0940   18.8410 O      31939 WAT       0.0741
  31940 WAT        26.4090   25.0940   19.0910 O      31940 WAT       0.0469
  31941 WAT        26.4090   25.3440    2.5910 O      31941 WAT       0.1302
  31942 WAT        26.4090   25.3440    2.8410 O      31942 WAT       0.0927
  31943 WAT        26.4090   25.3440    3.0910 O      31943 WAT       0.0462
  31944 WAT        26.4090   25.3440   17.8410 O      31944 WAT       0.0498
  31945 WAT        26.4090   25.3440   18.0910 O      31945 WAT       0.0717
  31946 WAT        26.4090   25.3440   18.3410 O      31946 WAT       0.0874
  31947 WAT        26.4090   25.3440   18.5910 O      31947 WAT       0.0868
  31948 WAT        26.4090   25.3440   18.8410 O      31948 WAT       0.0696
  31949 WAT        26.4090   25.3440   19.0910 O      31949 WAT       0.0460
  31950 WAT        26.4090   25.5940    2.5910 O      31950 WAT       0.0568
  31951 WAT        26.4090   25.5940   18.0910 O      31951 WAT       0.0490
  31952 WAT        26.4090   25.5940   18.3410 O      31952 WAT       0.0639
  31953 WAT        26.4090   25.5940   18.5910 O      31953 WAT       0.0685
  31954 WAT        26.4090   25.5940   18.8410 O      31954 WAT       0.0593
  31955 WAT        26.4090   25.8440   16.0910 O      31955 WAT       0.0600
  31956 WAT        26.4090   25.8440   16.3410 O      31956 WAT       0.0762
  31957 WAT        26.4090   25.8440   16.5910 O      31957 WAT       0.0697
  31958 WAT        26.4090   25.8440   16.8410 O      31958 WAT       0.0492
  31959 WAT        26.4090   25.8440   18.5910 O      31959 WAT       0.0510
  31960 WAT        26.4090   25.8440   18.8410 O      31960 WAT       0.0482
  31961 WAT        26.4090   26.0940   15.8410 O      31961 WAT       0.0823
  31962 WAT        26.4090   26.0940   16.0910 O      31962 WAT       0.1386
  31963 WAT        26.4090   26.0940   16.3410 O      31963 WAT       0.1580
  31964 WAT        26.4090   26.0940   16.5910 O      31964 WAT       0.1264
  31965 WAT        26.4090   26.0940   16.8410 O      31965 WAT       0.0751
  31966 WAT        26.4090   26.3440   15.5910 O      31966 WAT       0.0604
  31967 WAT        26.4090   26.3440   15.8410 O      31967 WAT       0.1436
  31968 WAT        26.4090   26.3440   16.0910 O      31968 WAT       0.2238
  31969 WAT        26.4090   26.3440   16.3410 O      31969 WAT       0.2343
  31970 WAT        26.4090   26.3440   16.5910 O      31970 WAT       0.1699
  31971 WAT        26.4090   26.3440   16.8410 O      31971 WAT       0.0892
  31972 WAT        26.4090   26.5940   15.5910 O      31972 WAT       0.0788
  31973 WAT        26.4090   26.5940   15.8410 O      31973 WAT       0.1736
  31974 WAT        26.4090   26.5940   16.0910 O      31974 WAT       0.2519
  31975 WAT        26.4090   26.5940   16.3410 O      31975 WAT       0.2457
  31976 WAT        26.4090   26.5940   16.5910 O      31976 WAT       0.1652
  31977 WAT        26.4090   26.5940   16.8410 O      31977 WAT       0.0794
  31978 WAT        26.4090   26.8440   15.5910 O      31978 WAT       0.0729
  31979 WAT        26.4090   26.8440   15.8410 O      31979 WAT       0.1486
  31980 WAT        26.4090   26.8440   16.0910 O      31980 WAT       0.2009
  31981 WAT        26.4090   26.8440   16.3410 O      31981 WAT       0.1836
  31982 WAT        26.4090   26.8440   16.5910 O      31982 WAT       0.1160
  31983 WAT        26.4090   26.8440   16.8410 O      31983 WAT       0.0523
  31984 WAT        26.4090   26.8440   21.0910 O      31984 WAT       0.0482
  31985 WAT        26.4090   26.8440   21.3410 O      31985 WAT       0.0523
  31986 WAT        26.4090   26.8440   21.5910 O      31986 WAT       0.0533
  31987 WAT        26.4090   26.8440   21.8410 O      31987 WAT       0.0499
  31988 WAT        26.4090   27.0940   15.5910 O      31988 WAT       0.0507
  31989 WAT        26.4090   27.0940   15.8410 O      31989 WAT       0.0943
  31990 WAT        26.4090   27.0940   16.0910 O      31990 WAT       0.1181
  31991 WAT        26.4090   27.0940   16.3410 O      31991 WAT       0.1011
  31992 WAT        26.4090   27.0940   16.5910 O      31992 WAT       0.0604
  31993 WAT        26.4090   27.0940   20.3410 O      31993 WAT       0.0493
  31994 WAT        26.4090   27.0940   20.5910 O      31994 WAT       0.0533
  31995 WAT        26.4090   27.0940   20.8410 O      31995 WAT       0.0579
  31996 WAT        26.4090   27.0940   21.0910 O      31996 WAT       0.0639
  31997 WAT        26.4090   27.0940   21.3410 O      31997 WAT       0.0694
  31998 WAT        26.4090   27.0940   21.5910 O      31998 WAT       0.0713
  31999 WAT        26.4090   27.0940   21.8410 O      31999 WAT       0.0674
  32000 WAT        26.4090   27.0940   22.0910 O      32000 WAT       0.0589
  32001 WAT        26.4090   27.0940   22.3410 O      32001 WAT       0.0489
  32002 WAT        26.4090   27.3440   15.8410 O      32002 WAT       0.0488
  32003 WAT        26.4090   27.3440   16.0910 O      32003 WAT       0.0554
  32004 WAT        26.4090   27.3440   19.8410 O      32004 WAT       0.0477
  32005 WAT        26.4090   27.3440   20.0910 O      32005 WAT       0.0542
  32006 WAT        26.4090   27.3440   20.3410 O      32006 WAT       0.0585
  32007 WAT        26.4090   27.3440   20.5910 O      32007 WAT       0.0605
  32008 WAT        26.4090   27.3440   20.8410 O      32008 WAT       0.0627
  32009 WAT        26.4090   27.3440   21.0910 O      32009 WAT       0.0668
  32010 WAT        26.4090   27.3440   21.3410 O      32010 WAT       0.0717
  32011 WAT        26.4090   27.3440   21.5910 O      32011 WAT       0.0740
  32012 WAT        26.4090   27.3440   21.8410 O      32012 WAT       0.0708
  32013 WAT        26.4090   27.3440   22.0910 O      32013 WAT       0.0626
  32014 WAT        26.4090   27.3440   22.3410 O      32014 WAT       0.0519
  32015 WAT        26.4090   27.5940   19.8410 O      32015 WAT       0.0503
  32016 WAT        26.4090   27.5940   20.0910 O      32016 WAT       0.0560
  32017 WAT        26.4090   27.5940   20.3410 O      32017 WAT       0.0581
  32018 WAT        26.4090   27.5940   20.5910 O      32018 WAT       0.0568
  32019 WAT        26.4090   27.5940   20.8410 O      32019 WAT       0.0551
  32020 WAT        26.4090   27.5940   21.0910 O      32020 WAT       0.0557
  32021 WAT        26.4090   27.5940   21.3410 O      32021 WAT       0.0583
  32022 WAT        26.4090   27.5940   21.5910 O      32022 WAT       0.0602
  32023 WAT        26.4090   27.5940   21.8410 O      32023 WAT       0.0586
  32024 WAT        26.4090   27.5940   22.0910 O      32024 WAT       0.0527
  32025 WAT        26.4090   27.8440   19.8410 O      32025 WAT       0.0465
  32026 WAT        26.4090   27.8440   20.0910 O      32026 WAT       0.0498
  32027 WAT        26.4090   27.8440   20.3410 O      32027 WAT       0.0492
  32028 WAT        26.4090   27.8440   20.5910 O      32028 WAT       0.0453
  32029 WAT        26.4090   29.8440   14.8410 O      32029 WAT       0.0583
  32030 WAT        26.4090   29.8440   15.0910 O      32030 WAT       0.0685
  32031 WAT        26.4090   29.8440   15.3410 O      32031 WAT       0.0565
  32032 WAT        26.4090   30.0940   14.8410 O      32032 WAT       0.0775
  32033 WAT        26.4090   30.0940   15.0910 O      32033 WAT       0.1007
  32034 WAT        26.4090   30.0940   15.3410 O      32034 WAT       0.0919
  32035 WAT        26.4090   30.0940   15.5910 O      32035 WAT       0.0598
  32036 WAT        26.4090   30.3440   14.8410 O      32036 WAT       0.0914
  32037 WAT        26.4090   30.3440   15.0910 O      32037 WAT       0.1343
  32038 WAT        26.4090   30.3440   15.3410 O      32038 WAT       0.1377
  32039 WAT        26.4090   30.3440   15.5910 O      32039 WAT       0.0995
  32040 WAT        26.4090   30.3440   15.8410 O      32040 WAT       0.0513
  32041 WAT        26.4090   30.5940   14.8410 O      32041 WAT       0.0964
  32042 WAT        26.4090   30.5940   15.0910 O      32042 WAT       0.1604
  32043 WAT        26.4090   30.5940   15.3410 O      32043 WAT       0.1843
  32044 WAT        26.4090   30.5940   15.5910 O      32044 WAT       0.1471
  32045 WAT        26.4090   30.5940   15.8410 O      32045 WAT       0.0822
  32046 WAT        26.4090   30.5940   24.3410 O      32046 WAT       0.0460
  32047 WAT        26.4090   30.5940   24.5910 O      32047 WAT       0.0471
  32048 WAT        26.4090   30.8440   14.8410 O      32048 WAT       0.0909
  32049 WAT        26.4090   30.8440   15.0910 O      32049 WAT       0.1696
  32050 WAT        26.4090   30.8440   15.3410 O      32050 WAT       0.2157
  32051 WAT        26.4090   30.8440   15.5910 O      32051 WAT       0.1880
  32052 WAT        26.4090   30.8440   15.8410 O      32052 WAT       0.1129
  32053 WAT        26.4090   30.8440   16.0910 O      32053 WAT       0.0472
  32054 WAT        26.4090   30.8440   23.3410 O      32054 WAT       0.0451
  32055 WAT        26.4090   30.8440   23.5910 O      32055 WAT       0.0480
  32056 WAT        26.4090   30.8440   23.8410 O      32056 WAT       0.0493
  32057 WAT        26.4090   30.8440   24.0910 O      32057 WAT       0.0505
  32058 WAT        26.4090   30.8440   24.3410 O      32058 WAT       0.0517
  32059 WAT        26.4090   30.8440   24.5910 O      32059 WAT       0.0511
  32060 WAT        26.4090   30.8440   24.8410 O      32060 WAT       0.0474
  32061 WAT        26.4090   31.0940   14.8410 O      32061 WAT       0.0771
  32062 WAT        26.4090   31.0940   15.0910 O      32062 WAT       0.1587
  32063 WAT        26.4090   31.0940   15.3410 O      32063 WAT       0.2198
  32064 WAT        26.4090   31.0940   15.5910 O      32064 WAT       0.2058
  32065 WAT        26.4090   31.0940   15.8410 O      32065 WAT       0.1308
  32066 WAT        26.4090   31.0940   16.0910 O      32066 WAT       0.0570
  32067 WAT        26.4090   31.0940   23.0910 O      32067 WAT       0.0454
  32068 WAT        26.4090   31.0940   23.3410 O      32068 WAT       0.0501
  32069 WAT        26.4090   31.0940   23.5910 O      32069 WAT       0.0526
  32070 WAT        26.4090   31.0940   23.8410 O      32070 WAT       0.0531
  32071 WAT        26.4090   31.0940   24.0910 O      32071 WAT       0.0530
  32072 WAT        26.4090   31.0940   24.3410 O      32072 WAT       0.0530
  32073 WAT        26.4090   31.0940   24.5910 O      32073 WAT       0.0518
  32074 WAT        26.4090   31.0940   24.8410 O      32074 WAT       0.0482
  32075 WAT        26.4090   31.3440   14.8410 O      32075 WAT       0.0596
  32076 WAT        26.4090   31.3440   15.0910 O      32076 WAT       0.1328
  32077 WAT        26.4090   31.3440   15.3410 O      32077 WAT       0.1961
  32078 WAT        26.4090   31.3440   15.5910 O      32078 WAT       0.1933
  32079 WAT        26.4090   31.3440   15.8410 O      32079 WAT       0.1281
  32080 WAT        26.4090   31.3440   16.0910 O      32080 WAT       0.0576
  32081 WAT        26.4090   31.3440   23.0910 O      32081 WAT       0.0465
  32082 WAT        26.4090   31.3440   23.3410 O      32082 WAT       0.0504
  32083 WAT        26.4090   31.3440   23.5910 O      32083 WAT       0.0520
  32084 WAT        26.4090   31.3440   23.8410 O      32084 WAT       0.0516
  32085 WAT        26.4090   31.3440   24.0910 O      32085 WAT       0.0504
  32086 WAT        26.4090   31.3440   24.3410 O      32086 WAT       0.0497
  32087 WAT        26.4090   31.3440   24.5910 O      32087 WAT       0.0489
  32088 WAT        26.4090   31.3440   24.8410 O      32088 WAT       0.0465
  32089 WAT        26.4090   31.5940   15.0910 O      32089 WAT       0.1004
  32090 WAT        26.4090   31.5940   15.3410 O      32090 WAT       0.1542
  32091 WAT        26.4090   31.5940   15.5910 O      32091 WAT       0.1570
  32092 WAT        26.4090   31.5940   15.8410 O      32092 WAT       0.1067
  32093 WAT        26.4090   31.5940   16.0910 O      32093 WAT       0.0489
  32094 WAT        26.4090   31.5940   23.3410 O      32094 WAT       0.0468
  32095 WAT        26.4090   31.5940   23.5910 O      32095 WAT       0.0478
  32096 WAT        26.4090   31.5940   23.8410 O      32096 WAT       0.0468
  32097 WAT        26.4090   31.8440   15.0910 O      32097 WAT       0.0699
  32098 WAT        26.4090   31.8440   15.3410 O      32098 WAT       0.1091
  32099 WAT        26.4090   31.8440   15.5910 O      32099 WAT       0.1123
  32100 WAT        26.4090   31.8440   15.8410 O      32100 WAT       0.0771
  32101 WAT        26.4090   32.0940   15.0910 O      32101 WAT       0.0473
  32102 WAT        26.4090   32.0940   15.3410 O      32102 WAT       0.0731
  32103 WAT        26.4090   32.0940   15.5910 O      32103 WAT       0.0745
  32104 WAT        26.4090   32.0940   15.8410 O      32104 WAT       0.0507
  32105 WAT        26.4090   32.3440   15.3410 O      32105 WAT       0.0500
  32106 WAT        26.4090   32.3440   15.5910 O      32106 WAT       0.0492
  32107 WAT        26.4090   33.0940   17.8410 O      32107 WAT       0.0451
  32108 WAT        26.4090   33.5940   11.0910 O      32108 WAT       0.0612
  32109 WAT        26.4090   33.5940   11.3410 O      32109 WAT       0.0782
  32110 WAT        26.4090   33.5940   11.5910 O      32110 WAT       0.0713
  32111 WAT        26.4090   33.5940   11.8410 O      32111 WAT       0.0475
  32112 WAT        26.4090   33.8440   11.0910 O      32112 WAT       0.0822
  32113 WAT        26.4090   33.8440   11.3410 O      32113 WAT       0.1104
  32114 WAT        26.4090   33.8440   11.5910 O      32114 WAT       0.1066
  32115 WAT        26.4090   33.8440   11.8410 O      32115 WAT       0.0760
  32116 WAT        26.4090   34.0940   11.0910 O      32116 WAT       0.0753
  32117 WAT        26.4090   34.0940   11.3410 O      32117 WAT       0.1070
  32118 WAT        26.4090   34.0940   11.5910 O      32118 WAT       0.1101
  32119 WAT        26.4090   34.0940   11.8410 O      32119 WAT       0.0844
  32120 WAT        26.4090   34.0940   12.0910 O      32120 WAT       0.0498
  32121 WAT        26.4090   34.3440   11.0910 O      32121 WAT       0.0475
  32122 WAT        26.4090   34.3440   11.3410 O      32122 WAT       0.0722
  32123 WAT        26.4090   34.3440   11.5910 O      32123 WAT       0.0797
  32124 WAT        26.4090   34.3440   11.8410 O      32124 WAT       0.0660
  32125 WAT        26.6590    9.8440   28.8410 O      32125 WAT       0.0467
  32126 WAT        26.6590   10.0940   28.5910 O      32126 WAT       0.0460
  32127 WAT        26.6590   10.0940   28.8410 O      32127 WAT       0.0518
  32128 WAT        26.6590   10.0940   29.0910 O      32128 WAT       0.0506
  32129 WAT        26.6590   10.3440   28.5910 O      32129 WAT       0.0483
  32130 WAT        26.6590   10.3440   28.8410 O      32130 WAT       0.0561
  32131 WAT        26.6590   10.3440   29.0910 O      32131 WAT       0.0560
  32132 WAT        26.6590   10.3440   29.3410 O      32132 WAT       0.0453
  32133 WAT        26.6590   10.5940   25.3410 O      32133 WAT       0.0456
  32134 WAT        26.6590   10.5940   25.5910 O      32134 WAT       0.0475
  32135 WAT        26.6590   10.5940   28.5910 O      32135 WAT       0.0480
  32136 WAT        26.6590   10.5940   28.8410 O      32136 WAT       0.0576
  32137 WAT        26.6590   10.5940   29.0910 O      32137 WAT       0.0591
  32138 WAT        26.6590   10.5940   29.3410 O      32138 WAT       0.0489
  32139 WAT        26.6590   10.8440   25.3410 O      32139 WAT       0.0457
  32140 WAT        26.6590   10.8440   25.5910 O      32140 WAT       0.0495
  32141 WAT        26.6590   10.8440   25.8410 O      32141 WAT       0.0468
  32142 WAT        26.6590   10.8440   28.8410 O      32142 WAT       0.0556
  32143 WAT        26.6590   10.8440   29.0910 O      32143 WAT       0.0593
  32144 WAT        26.6590   10.8440   29.3410 O      32144 WAT       0.0507
  32145 WAT        26.6590   11.0940   25.5910 O      32145 WAT       0.0488
  32146 WAT        26.6590   11.0940   25.8410 O      32146 WAT       0.0471
  32147 WAT        26.6590   11.0940   28.8410 O      32147 WAT       0.0512
  32148 WAT        26.6590   11.0940   29.0910 O      32148 WAT       0.0567
  32149 WAT        26.6590   11.0940   29.3410 O      32149 WAT       0.0502
  32150 WAT        26.6590   11.3440   25.5910 O      32150 WAT       0.0469
  32151 WAT        26.6590   11.3440   25.8410 O      32151 WAT       0.0464
  32152 WAT        26.6590   11.3440   28.8410 O      32152 WAT       0.0461
  32153 WAT        26.6590   11.3440   29.0910 O      32153 WAT       0.0522
  32154 WAT        26.6590   11.3440   29.3410 O      32154 WAT       0.0474
  32155 WAT        26.6590   11.5940   25.5910 O      32155 WAT       0.0456
  32156 WAT        26.6590   11.5940   25.8410 O      32156 WAT       0.0463
  32157 WAT        26.6590   11.5940   29.0910 O      32157 WAT       0.0468
  32158 WAT        26.6590   11.8440   25.5910 O      32158 WAT       0.0457
  32159 WAT        26.6590   11.8440   25.8410 O      32159 WAT       0.0474
  32160 WAT        26.6590   12.0940   25.5910 O      32160 WAT       0.0468
  32161 WAT        26.6590   12.0940   25.8410 O      32161 WAT       0.0490
  32162 WAT        26.6590   12.3440   25.5910 O      32162 WAT       0.0482
  32163 WAT        26.6590   12.3440   25.8410 O      32163 WAT       0.0504
  32164 WAT        26.6590   12.3440   26.0910 O      32164 WAT       0.0456
  32165 WAT        26.6590   12.5940   25.5910 O      32165 WAT       0.0498
  32166 WAT        26.6590   12.5940   25.8410 O      32166 WAT       0.0517
  32167 WAT        26.6590   12.5940   26.0910 O      32167 WAT       0.0465
  32168 WAT        26.6590   12.8440   25.5910 O      32168 WAT       0.0515
  32169 WAT        26.6590   12.8440   25.8410 O      32169 WAT       0.0529
  32170 WAT        26.6590   12.8440   26.0910 O      32170 WAT       0.0472
  32171 WAT        26.6590   13.0940   20.8410 O      32171 WAT       0.0476
  32172 WAT        26.6590   13.0940   21.0910 O      32172 WAT       0.0472
  32173 WAT        26.6590   13.0940   25.5910 O      32173 WAT       0.0531
  32174 WAT        26.6590   13.0940   25.8410 O      32174 WAT       0.0541
  32175 WAT        26.6590   13.0940   26.0910 O      32175 WAT       0.0477
  32176 WAT        26.6590   13.3440   20.8410 O      32176 WAT       0.0499
  32177 WAT        26.6590   13.3440   21.0910 O      32177 WAT       0.0499
  32178 WAT        26.6590   13.3440   25.3410 O      32178 WAT       0.0462
  32179 WAT        26.6590   13.3440   25.5910 O      32179 WAT       0.0545
  32180 WAT        26.6590   13.3440   25.8410 O      32180 WAT       0.0551
  32181 WAT        26.6590   13.3440   26.0910 O      32181 WAT       0.0481
  32182 WAT        26.6590   13.5940   20.5910 O      32182 WAT       0.0457
  32183 WAT        26.6590   13.5940   20.8410 O      32183 WAT       0.0517
  32184 WAT        26.6590   13.5940   21.0910 O      32184 WAT       0.0525
  32185 WAT        26.6590   13.5940   21.3410 O      32185 WAT       0.0476
  32186 WAT        26.6590   13.5940   25.3410 O      32186 WAT       0.0480
  32187 WAT        26.6590   13.5940   25.5910 O      32187 WAT       0.0550
  32188 WAT        26.6590   13.5940   25.8410 O      32188 WAT       0.0548
  32189 WAT        26.6590   13.5940   26.0910 O      32189 WAT       0.0472
  32190 WAT        26.6590   13.8440   14.8410 O      32190 WAT       0.0450
  32191 WAT        26.6590   13.8440   15.0910 O      32191 WAT       0.0451
  32192 WAT        26.6590   13.8440   20.5910 O      32192 WAT       0.0464
  32193 WAT        26.6590   13.8440   20.8410 O      32193 WAT       0.0528
  32194 WAT        26.6590   13.8440   21.0910 O      32194 WAT       0.0546
  32195 WAT        26.6590   13.8440   21.3410 O      32195 WAT       0.0507
  32196 WAT        26.6590   13.8440   25.3410 O      32196 WAT       0.0498
  32197 WAT        26.6590   13.8440   25.5910 O      32197 WAT       0.0542
  32198 WAT        26.6590   13.8440   25.8410 O      32198 WAT       0.0523
  32199 WAT        26.6590   14.0940   14.5910 O      32199 WAT       0.0451
  32200 WAT        26.6590   14.0940   14.8410 O      32200 WAT       0.0450
  32201 WAT        26.6590   14.0940   20.5910 O      32201 WAT       0.0464
  32202 WAT        26.6590   14.0940   20.8410 O      32202 WAT       0.0530
  32203 WAT        26.6590   14.0940   21.0910 O      32203 WAT       0.0553
  32204 WAT        26.6590   14.0940   21.3410 O      32204 WAT       0.0525
  32205 WAT        26.6590   14.0940   21.5910 O      32205 WAT       0.0452
  32206 WAT        26.6590   14.0940   25.0910 O      32206 WAT       0.0475
  32207 WAT        26.6590   14.0940   25.3410 O      32207 WAT       0.0517
  32208 WAT        26.6590   14.0940   25.5910 O      32208 WAT       0.0521
  32209 WAT        26.6590   14.0940   25.8410 O      32209 WAT       0.0479
  32210 WAT        26.6590   14.3440   20.5910 O      32210 WAT       0.0452
  32211 WAT        26.6590   14.3440   20.8410 O      32211 WAT       0.0513
  32212 WAT        26.6590   14.3440   21.0910 O      32212 WAT       0.0539
  32213 WAT        26.6590   14.3440   21.3410 O      32213 WAT       0.0520
  32214 WAT        26.6590   14.3440   21.5910 O      32214 WAT       0.0461
  32215 WAT        26.6590   14.3440   24.8410 O      32215 WAT       0.0504
  32216 WAT        26.6590   14.3440   25.0910 O      32216 WAT       0.0539
  32217 WAT        26.6590   14.3440   25.3410 O      32217 WAT       0.0536
  32218 WAT        26.6590   14.3440   25.5910 O      32218 WAT       0.0494
  32219 WAT        26.6590   14.5940   17.0910 O      32219 WAT       0.0485
  32220 WAT        26.6590   14.5940   17.3410 O      32220 WAT       0.0501
  32221 WAT        26.6590   14.5940   17.5910 O      32221 WAT       0.0487
  32222 WAT        26.6590   14.5940   20.8410 O      32222 WAT       0.0472
  32223 WAT        26.6590   14.5940   21.0910 O      32223 WAT       0.0497
  32224 WAT        26.6590   14.5940   21.3410 O      32224 WAT       0.0486
  32225 WAT        26.6590   14.5940   24.3410 O      32225 WAT       0.0485
  32226 WAT        26.6590   14.5940   24.5910 O      32226 WAT       0.0563
  32227 WAT        26.6590   14.5940   24.8410 O      32227 WAT       0.0607
  32228 WAT        26.6590   14.5940   25.0910 O      32228 WAT       0.0601
  32229 WAT        26.6590   14.5940   25.3410 O      32229 WAT       0.0547
  32230 WAT        26.6590   14.5940   25.5910 O      32230 WAT       0.0462
  32231 WAT        26.6590   14.8440   17.0910 O      32231 WAT       0.0473
  32232 WAT        26.6590   14.8440   17.3410 O      32232 WAT       0.0533
  32233 WAT        26.6590   14.8440   17.5910 O      32233 WAT       0.0557
  32234 WAT        26.6590   14.8440   17.8410 O      32234 WAT       0.0537
  32235 WAT        26.6590   14.8440   18.0910 O      32235 WAT       0.0473
  32236 WAT        26.6590   14.8440   24.0910 O      32236 WAT       0.0472
  32237 WAT        26.6590   14.8440   24.3410 O      32237 WAT       0.0592
  32238 WAT        26.6590   14.8440   24.5910 O      32238 WAT       0.0678
  32239 WAT        26.6590   14.8440   24.8410 O      32239 WAT       0.0699
  32240 WAT        26.6590   14.8440   25.0910 O      32240 WAT       0.0646
  32241 WAT        26.6590   14.8440   25.3410 O      32241 WAT       0.0542
  32242 WAT        26.6590   15.0940   17.3410 O      32242 WAT       0.0500
  32243 WAT        26.6590   15.0940   17.5910 O      32243 WAT       0.0568
  32244 WAT        26.6590   15.0940   17.8410 O      32244 WAT       0.0584
  32245 WAT        26.6590   15.0940   18.0910 O      32245 WAT       0.0541
  32246 WAT        26.6590   15.0940   18.3410 O      32246 WAT       0.0463
  32247 WAT        26.6590   15.0940   24.0910 O      32247 WAT       0.0528
  32248 WAT        26.6590   15.0940   24.3410 O      32248 WAT       0.0662
  32249 WAT        26.6590   15.0940   24.5910 O      32249 WAT       0.0747
  32250 WAT        26.6590   15.0940   24.8410 O      32250 WAT       0.0745
  32251 WAT        26.6590   15.0940   25.0910 O      32251 WAT       0.0655
  32252 WAT        26.6590   15.0940   25.3410 O      32252 WAT       0.0515
  32253 WAT        26.6590   15.3440   17.5910 O      32253 WAT       0.0501
  32254 WAT        26.6590   15.3440   17.8410 O      32254 WAT       0.0558
  32255 WAT        26.6590   15.3440   18.0910 O      32255 WAT       0.0554
  32256 WAT        26.6590   15.3440   18.3410 O      32256 WAT       0.0501
  32257 WAT        26.6590   15.3440   24.0910 O      32257 WAT       0.0546
  32258 WAT        26.6590   15.3440   24.3410 O      32258 WAT       0.0674
  32259 WAT        26.6590   15.3440   24.5910 O      32259 WAT       0.0746
  32260 WAT        26.6590   15.3440   24.8410 O      32260 WAT       0.0725
  32261 WAT        26.6590   15.3440   25.0910 O      32261 WAT       0.0615
  32262 WAT        26.6590   15.3440   25.3410 O      32262 WAT       0.0461
  32263 WAT        26.6590   15.5940   17.8410 O      32263 WAT       0.0467
  32264 WAT        26.6590   15.5940   18.0910 O      32264 WAT       0.0508
  32265 WAT        26.6590   15.5940   18.3410 O      32265 WAT       0.0493
  32266 WAT        26.6590   15.5940   24.0910 O      32266 WAT       0.0527
  32267 WAT        26.6590   15.5940   24.3410 O      32267 WAT       0.0636
  32268 WAT        26.6590   15.5940   24.5910 O      32268 WAT       0.0685
  32269 WAT        26.6590   15.5940   24.8410 O      32269 WAT       0.0650
  32270 WAT        26.6590   15.5940   25.0910 O      32270 WAT       0.0537
  32271 WAT        26.6590   15.8440   18.3410 O      32271 WAT       0.0453
  32272 WAT        26.6590   15.8440   24.0910 O      32272 WAT       0.0483
  32273 WAT        26.6590   15.8440   24.3410 O      32273 WAT       0.0570
  32274 WAT        26.6590   15.8440   24.5910 O      32274 WAT       0.0597
  32275 WAT        26.6590   15.8440   24.8410 O      32275 WAT       0.0552
  32276 WAT        26.6590   16.0940   24.3410 O      32276 WAT       0.0495
  32277 WAT        26.6590   16.0940   24.5910 O      32277 WAT       0.0505
  32278 WAT        26.6590   16.0940   24.8410 O      32278 WAT       0.0457
  32279 WAT        26.6590   16.8440   28.3410 O      32279 WAT       0.0473
  32280 WAT        26.6590   16.8440   28.5910 O      32280 WAT       0.0487
  32281 WAT        26.6590   17.0940    8.5910 O      32281 WAT       0.0455
  32282 WAT        26.6590   17.0940   28.0910 O      32282 WAT       0.0490
  32283 WAT        26.6590   17.0940   28.3410 O      32283 WAT       0.0587
  32284 WAT        26.6590   17.0940   28.5910 O      32284 WAT       0.0627
  32285 WAT        26.6590   17.0940   28.8410 O      32285 WAT       0.0581
  32286 WAT        26.6590   17.0940   29.0910 O      32286 WAT       0.0462
  32287 WAT        26.6590   17.3440    8.3410 O      32287 WAT       0.0505
  32288 WAT        26.6590   17.3440    8.5910 O      32288 WAT       0.0555
  32289 WAT        26.6590   17.3440    8.8410 O      32289 WAT       0.0455
  32290 WAT        26.6590   17.3440   28.0910 O      32290 WAT       0.0519
  32291 WAT        26.6590   17.3440   28.3410 O      32291 WAT       0.0653
  32292 WAT        26.6590   17.3440   28.5910 O      32292 WAT       0.0725
  32293 WAT        26.6590   17.3440   28.8410 O      32293 WAT       0.0693
  32294 WAT        26.6590   17.3440   29.0910 O      32294 WAT       0.0561
  32295 WAT        26.6590   17.5940    8.3410 O      32295 WAT       0.0539
  32296 WAT        26.6590   17.5940    8.5910 O      32296 WAT       0.0543
  32297 WAT        26.6590   17.5940   28.0910 O      32297 WAT       0.0487
  32298 WAT        26.6590   17.5940   28.3410 O      32298 WAT       0.0636
  32299 WAT        26.6590   17.5940   28.5910 O      32299 WAT       0.0734
  32300 WAT        26.6590   17.5940   28.8410 O      32300 WAT       0.0729
  32301 WAT        26.6590   17.5940   29.0910 O      32301 WAT       0.0608
  32302 WAT        26.6590   17.8440   28.3410 O      32302 WAT       0.0547
  32303 WAT        26.6590   17.8440   28.5910 O      32303 WAT       0.0649
  32304 WAT        26.6590   17.8440   28.8410 O      32304 WAT       0.0668
  32305 WAT        26.6590   17.8440   29.0910 O      32305 WAT       0.0576
  32306 WAT        26.6590   18.0940   22.5910 O      32306 WAT       0.0457
  32307 WAT        26.6590   18.0940   28.5910 O      32307 WAT       0.0511
  32308 WAT        26.6590   18.0940   28.8410 O      32308 WAT       0.0537
  32309 WAT        26.6590   18.0940   29.0910 O      32309 WAT       0.0478
  32310 WAT        26.6590   18.3440   22.5910 O      32310 WAT       0.0451
  32311 WAT        26.6590   18.8440    6.0910 O      32311 WAT       0.0519
  32312 WAT        26.6590   18.8440    6.3410 O      32312 WAT       0.0696
  32313 WAT        26.6590   18.8440    6.5910 O      32313 WAT       0.0704
  32314 WAT        26.6590   18.8440    6.8410 O      32314 WAT       0.0530
  32315 WAT        26.6590   19.0940    5.8410 O      32315 WAT       0.0648
  32316 WAT        26.6590   19.0940    6.0910 O      32316 WAT       0.1034
  32317 WAT        26.6590   19.0940    6.3410 O      32317 WAT       0.1280
  32318 WAT        26.6590   19.0940    6.5910 O      32318 WAT       0.1185
  32319 WAT        26.6590   19.0940    6.8410 O      32319 WAT       0.0806
  32320 WAT        26.6590   19.3440    3.3410 O      32320 WAT       0.0551
  32321 WAT        26.6590   19.3440    3.5910 O      32321 WAT       0.0580
  32322 WAT        26.6590   19.3440    3.8410 O      32322 WAT       0.0488
  32323 WAT        26.6590   19.3440    5.5910 O      32323 WAT       0.0559
  32324 WAT        26.6590   19.3440    5.8410 O      32324 WAT       0.1009
  32325 WAT        26.6590   19.3440    6.0910 O      32325 WAT       0.1478
  32326 WAT        26.6590   19.3440    6.3410 O      32326 WAT       0.1678
  32327 WAT        26.6590   19.3440    6.5910 O      32327 WAT       0.1426
  32328 WAT        26.6590   19.3440    6.8410 O      32328 WAT       0.0887
  32329 WAT        26.6590   19.5940    3.0910 O      32329 WAT       0.0566
  32330 WAT        26.6590   19.5940    3.3410 O      32330 WAT       0.0712
  32331 WAT        26.6590   19.5940    3.5910 O      32331 WAT       0.0747
  32332 WAT        26.6590   19.5940    3.8410 O      32332 WAT       0.0618
  32333 WAT        26.6590   19.5940    5.5910 O      32333 WAT       0.0657
  32334 WAT        26.6590   19.5940    5.8410 O      32334 WAT       0.1088
  32335 WAT        26.6590   19.5940    6.0910 O      32335 WAT       0.1449
  32336 WAT        26.6590   19.5940    6.3410 O      32336 WAT       0.1500
  32337 WAT        26.6590   19.5940    6.5910 O      32337 WAT       0.1167
  32338 WAT        26.6590   19.5940    6.8410 O      32338 WAT       0.0666
  32339 WAT        26.6590   19.8440    3.0910 O      32339 WAT       0.0605
  32340 WAT        26.6590   19.8440    3.3410 O      32340 WAT       0.0741
  32341 WAT        26.6590   19.8440    3.5910 O      32341 WAT       0.0756
  32342 WAT        26.6590   19.8440    3.8410 O      32342 WAT       0.0608
  32343 WAT        26.6590   19.8440    5.5910 O      32343 WAT       0.0525
  32344 WAT        26.6590   19.8440    5.8410 O      32344 WAT       0.0790
  32345 WAT        26.6590   19.8440    6.0910 O      32345 WAT       0.0950
  32346 WAT        26.6590   19.8440    6.3410 O      32346 WAT       0.0890
  32347 WAT        26.6590   19.8440    6.5910 O      32347 WAT       0.0629
  32348 WAT        26.6590   20.0940    3.0910 O      32348 WAT       0.0524
  32349 WAT        26.6590   20.0940    3.3410 O      32349 WAT       0.0606
  32350 WAT        26.6590   20.0940    3.5910 O      32350 WAT       0.0585
  32351 WAT        26.6590   21.0940   19.0910 O      32351 WAT       0.0456
  32352 WAT        26.6590   21.0940   19.3410 O      32352 WAT       0.0570
  32353 WAT        26.6590   21.0940   19.5910 O      32353 WAT       0.0577
  32354 WAT        26.6590   21.0940   19.8410 O      32354 WAT       0.0461
  32355 WAT        26.6590   21.3440   19.0910 O      32355 WAT       0.0610
  32356 WAT        26.6590   21.3440   19.3410 O      32356 WAT       0.0749
  32357 WAT        26.6590   21.3440   19.5910 O      32357 WAT       0.0743
  32358 WAT        26.6590   21.3440   19.8410 O      32358 WAT       0.0585
  32359 WAT        26.6590   21.5940   18.8410 O      32359 WAT       0.0518
  32360 WAT        26.6590   21.5940   19.0910 O      32360 WAT       0.0771
  32361 WAT        26.6590   21.5940   19.3410 O      32361 WAT       0.0932
  32362 WAT        26.6590   21.5940   19.5910 O      32362 WAT       0.0909
  32363 WAT        26.6590   21.5940   19.8410 O      32363 WAT       0.0709
  32364 WAT        26.6590   21.8440   18.8410 O      32364 WAT       0.0596
  32365 WAT        26.6590   21.8440   19.0910 O      32365 WAT       0.0894
  32366 WAT        26.6590   21.8440   19.3410 O      32366 WAT       0.1071
  32367 WAT        26.6590   21.8440   19.5910 O      32367 WAT       0.1034
  32368 WAT        26.6590   21.8440   19.8410 O      32368 WAT       0.0805
  32369 WAT        26.6590   21.8440   20.0910 O      32369 WAT       0.0509
  32370 WAT        26.6590   22.0940   18.8410 O      32370 WAT       0.0616
  32371 WAT        26.6590   22.0940   19.0910 O      32371 WAT       0.0933
  32372 WAT        26.6590   22.0940   19.3410 O      32372 WAT       0.1116
  32373 WAT        26.6590   22.0940   19.5910 O      32373 WAT       0.1075
  32374 WAT        26.6590   22.0940   19.8410 O      32374 WAT       0.0842
  32375 WAT        26.6590   22.0940   20.0910 O      32375 WAT       0.0542
  32376 WAT        26.6590   22.3440   18.8410 O      32376 WAT       0.0565
  32377 WAT        26.6590   22.3440   19.0910 O      32377 WAT       0.0864
  32378 WAT        26.6590   22.3440   19.3410 O      32378 WAT       0.1036
  32379 WAT        26.6590   22.3440   19.5910 O      32379 WAT       0.1003
  32380 WAT        26.6590   22.3440   19.8410 O      32380 WAT       0.0800
  32381 WAT        26.6590   22.3440   20.0910 O      32381 WAT       0.0531
  32382 WAT        26.6590   22.5940   18.8410 O      32382 WAT       0.0455
  32383 WAT        26.6590   22.5940   19.0910 O      32383 WAT       0.0701
  32384 WAT        26.6590   22.5940   19.3410 O      32384 WAT       0.0846
  32385 WAT        26.6590   22.5940   19.5910 O      32385 WAT       0.0832
  32386 WAT        26.6590   22.5940   19.8410 O      32386 WAT       0.0683
  32387 WAT        26.6590   22.5940   20.0910 O      32387 WAT       0.0475
  32388 WAT        26.6590   22.8440   19.0910 O      32388 WAT       0.0500
  32389 WAT        26.6590   22.8440   19.3410 O      32389 WAT       0.0612
  32390 WAT        26.6590   22.8440   19.5910 O      32390 WAT       0.0619
  32391 WAT        26.6590   22.8440   19.8410 O      32391 WAT       0.0533
  32392 WAT        26.6590   23.0940   23.8410 O      32392 WAT       0.0504
  32393 WAT        26.6590   23.0940   24.0910 O      32393 WAT       0.0540
  32394 WAT        26.6590   23.0940   24.3410 O      32394 WAT       0.0486
  32395 WAT        26.6590   23.3440   23.5910 O      32395 WAT       0.0468
  32396 WAT        26.6590   23.3440   23.8410 O      32396 WAT       0.0599
  32397 WAT        26.6590   23.3440   24.0910 O      32397 WAT       0.0653
  32398 WAT        26.6590   23.3440   24.3410 O      32398 WAT       0.0606
  32399 WAT        26.6590   23.3440   24.5910 O      32399 WAT       0.0485
  32400 WAT        26.6590   23.5940   23.5910 O      32400 WAT       0.0510
  32401 WAT        26.6590   23.5940   23.8410 O      32401 WAT       0.0655
  32402 WAT        26.6590   23.5940   24.0910 O      32402 WAT       0.0727
  32403 WAT        26.6590   23.5940   24.3410 O      32403 WAT       0.0693
  32404 WAT        26.6590   23.5940   24.5910 O      32404 WAT       0.0575
  32405 WAT        26.6590   23.8440   23.5910 O      32405 WAT       0.0480
  32406 WAT        26.6590   23.8440   23.8410 O      32406 WAT       0.0616
  32407 WAT        26.6590   23.8440   24.0910 O      32407 WAT       0.0697
  32408 WAT        26.6590   23.8440   24.3410 O      32408 WAT       0.0687
  32409 WAT        26.6590   23.8440   24.5910 O      32409 WAT       0.0596
  32410 WAT        26.6590   23.8440   24.8410 O      32410 WAT       0.0463
  32411 WAT        26.6590   24.0940    2.5910 O      32411 WAT       0.0780
  32412 WAT        26.6590   24.0940    2.8410 O      32412 WAT       0.0563
  32413 WAT        26.6590   24.0940   21.8410 O      32413 WAT       0.0466
  32414 WAT        26.6590   24.0940   22.0910 O      32414 WAT       0.0455
  32415 WAT        26.6590   24.0940   23.8410 O      32415 WAT       0.0478
  32416 WAT        26.6590   24.0940   24.0910 O      32416 WAT       0.0553
  32417 WAT        26.6590   24.0940   24.3410 O      32417 WAT       0.0568
  32418 WAT        26.6590   24.0940   24.5910 O      32418 WAT       0.0520
  32419 WAT        26.6590   24.3440    2.5910 O      32419 WAT       0.1391
  32420 WAT        26.6590   24.3440    2.8410 O      32420 WAT       0.0995
  32421 WAT        26.6590   24.3440    3.0910 O      32421 WAT       0.0509
  32422 WAT        26.6590   24.3440   17.8410 O      32422 WAT       0.0456
  32423 WAT        26.6590   24.3440   18.0910 O      32423 WAT       0.0652
  32424 WAT        26.6590   24.3440   18.3410 O      32424 WAT       0.0722
  32425 WAT        26.6590   24.3440   18.5910 O      32425 WAT       0.0635
  32426 WAT        26.6590   24.3440   18.8410 O      32426 WAT       0.0464
  32427 WAT        26.6590   24.3440   21.5910 O      32427 WAT       0.0463
  32428 WAT        26.6590   24.3440   21.8410 O      32428 WAT       0.0496
  32429 WAT        26.6590   24.3440   22.0910 O      32429 WAT       0.0475
  32430 WAT        26.6590   24.5940    2.5910 O      32430 WAT       0.2019
  32431 WAT        26.6590   24.5940    2.8410 O      32431 WAT       0.1431
  32432 WAT        26.6590   24.5940    3.0910 O      32432 WAT       0.0725
  32433 WAT        26.6590   24.5940   17.8410 O      32433 WAT       0.0701
  32434 WAT        26.6590   24.5940   18.0910 O      32434 WAT       0.0969
  32435 WAT        26.6590   24.5940   18.3410 O      32435 WAT       0.1049
  32436 WAT        26.6590   24.5940   18.5910 O      32436 WAT       0.0904
  32437 WAT        26.6590   24.5940   18.8410 O      32437 WAT       0.0642
  32438 WAT        26.6590   24.5940   21.8410 O      32438 WAT       0.0450
  32439 WAT        26.6590   24.8440    2.5910 O      32439 WAT       0.2273
  32440 WAT        26.6590   24.8440    2.8410 O      32440 WAT       0.1591
  32441 WAT        26.6590   24.8440    3.0910 O      32441 WAT       0.0793
  32442 WAT        26.6590   24.8440   17.5910 O      32442 WAT       0.0494
  32443 WAT        26.6590   24.8440   17.8410 O      32443 WAT       0.0837
  32444 WAT        26.6590   24.8440   18.0910 O      32444 WAT       0.1139
  32445 WAT        26.6590   24.8440   18.3410 O      32445 WAT       0.1241
  32446 WAT        26.6590   24.8440   18.5910 O      32446 WAT       0.1087
  32447 WAT        26.6590   24.8440   18.8410 O      32447 WAT       0.0781
  32448 WAT        26.6590   24.8440   19.0910 O      32448 WAT       0.0485
  32449 WAT        26.6590   25.0940    2.5910 O      32449 WAT       0.1920
  32450 WAT        26.6590   25.0940    2.8410 O      32450 WAT       0.1323
  32451 WAT        26.6590   25.0940    3.0910 O      32451 WAT       0.0646
  32452 WAT        26.6590   25.0940   17.5910 O      32452 WAT       0.0491
  32453 WAT        26.6590   25.0940   17.8410 O      32453 WAT       0.0792
  32454 WAT        26.6590   25.0940   18.0910 O      32454 WAT       0.1080
  32455 WAT        26.6590   25.0940   18.3410 O      32455 WAT       0.1212
  32456 WAT        26.6590   25.0940   18.5910 O      32456 WAT       0.1106
  32457 WAT        26.6590   25.0940   18.8410 O      32457 WAT       0.0826
  32458 WAT        26.6590   25.0940   19.0910 O      32458 WAT       0.0524
  32459 WAT        26.6590   25.3440    2.5910 O      32459 WAT       0.1190
  32460 WAT        26.6590   25.3440    2.8410 O      32460 WAT       0.0808
  32461 WAT        26.6590   25.3440   17.8410 O      32461 WAT       0.0615
  32462 WAT        26.6590   25.3440   18.0910 O      32462 WAT       0.0852
  32463 WAT        26.6590   25.3440   18.3410 O      32463 WAT       0.1002
  32464 WAT        26.6590   25.3440   18.5910 O      32464 WAT       0.0967
  32465 WAT        26.6590   25.3440   18.8410 O      32465 WAT       0.0762
  32466 WAT        26.6590   25.3440   19.0910 O      32466 WAT       0.0504
  32467 WAT        26.6590   25.5940    2.5910 O      32467 WAT       0.0532
  32468 WAT        26.6590   25.5940   18.0910 O      32468 WAT       0.0584
  32469 WAT        26.6590   25.5940   18.3410 O      32469 WAT       0.0728
  32470 WAT        26.6590   25.5940   18.5910 O      32470 WAT       0.0751
  32471 WAT        26.6590   25.5940   18.8410 O      32471 WAT       0.0633
  32472 WAT        26.6590   25.8440   16.3410 O      32472 WAT       0.0594
  32473 WAT        26.6590   25.8440   16.5910 O      32473 WAT       0.0579
  32474 WAT        26.6590   25.8440   18.3410 O      32474 WAT       0.0493
  32475 WAT        26.6590   25.8440   18.5910 O      32475 WAT       0.0549
  32476 WAT        26.6590   25.8440   18.8410 O      32476 WAT       0.0498
  32477 WAT        26.6590   26.0940   15.8410 O      32477 WAT       0.0531
  32478 WAT        26.6590   26.0940   16.0910 O      32478 WAT       0.0917
  32479 WAT        26.6590   26.0940   16.3410 O      32479 WAT       0.1082
  32480 WAT        26.6590   26.0940   16.5910 O      32480 WAT       0.0912
  32481 WAT        26.6590   26.0940   16.8410 O      32481 WAT       0.0589
  32482 WAT        26.6590   26.3440   15.8410 O      32482 WAT       0.0875
  32483 WAT        26.6590   26.3440   16.0910 O      32483 WAT       0.1382
  32484 WAT        26.6590   26.3440   16.3410 O      32484 WAT       0.1478
  32485 WAT        26.6590   26.3440   16.5910 O      32485 WAT       0.1113
  32486 WAT        26.6590   26.3440   16.8410 O      32486 WAT       0.0627
  32487 WAT        26.6590   26.5940   15.5910 O      32487 WAT       0.0467
  32488 WAT        26.6590   26.5940   15.8410 O      32488 WAT       0.1036
  32489 WAT        26.6590   26.5940   16.0910 O      32489 WAT       0.1513
  32490 WAT        26.6590   26.5940   16.3410 O      32490 WAT       0.1495
  32491 WAT        26.6590   26.5940   16.5910 O      32491 WAT       0.1033
  32492 WAT        26.6590   26.5940   16.8410 O      32492 WAT       0.0528
  32493 WAT        26.6590   26.8440   15.8410 O      32493 WAT       0.0903
  32494 WAT        26.6590   26.8440   16.0910 O      32494 WAT       0.1221
  32495 WAT        26.6590   26.8440   16.3410 O      32495 WAT       0.1124
  32496 WAT        26.6590   26.8440   16.5910 O      32496 WAT       0.0728
  32497 WAT        26.6590   27.0940   15.8410 O      32497 WAT       0.0616
  32498 WAT        26.6590   27.0940   16.0910 O      32498 WAT       0.0764
  32499 WAT        26.6590   27.0940   16.3410 O      32499 WAT       0.0657
  32500 WAT        26.6590   27.0940   21.0910 O      32500 WAT       0.0453
  32501 WAT        26.6590   27.0940   21.3410 O      32501 WAT       0.0514
  32502 WAT        26.6590   27.0940   21.5910 O      32502 WAT       0.0546
  32503 WAT        26.6590   27.0940   21.8410 O      32503 WAT       0.0528
  32504 WAT        26.6590   27.0940   22.0910 O      32504 WAT       0.0465
  32505 WAT        26.6590   27.3440   20.8410 O      32505 WAT       0.0459
  32506 WAT        26.6590   27.3440   21.0910 O      32506 WAT       0.0519
  32507 WAT        26.6590   27.3440   21.3410 O      32507 WAT       0.0589
  32508 WAT        26.6590   27.3440   21.5910 O      32508 WAT       0.0636
  32509 WAT        26.6590   27.3440   21.8410 O      32509 WAT       0.0630
  32510 WAT        26.6590   27.3440   22.0910 O      32510 WAT       0.0568
  32511 WAT        26.6590   27.3440   22.3410 O      32511 WAT       0.0474
  32512 WAT        26.6590   27.5940   20.3410 O      32512 WAT       0.0455
  32513 WAT        26.6590   27.5940   20.8410 O      32513 WAT       0.0457
  32514 WAT        26.6590   27.5940   21.0910 O      32514 WAT       0.0492
  32515 WAT        26.6590   27.5940   21.3410 O      32515 WAT       0.0549
  32516 WAT        26.6590   27.5940   21.5910 O      32516 WAT       0.0597
  32517 WAT        26.6590   27.5940   21.8410 O      32517 WAT       0.0604
  32518 WAT        26.6590   27.5940   22.0910 O      32518 WAT       0.0560
  32519 WAT        26.6590   27.5940   22.3410 O      32519 WAT       0.0483
  32520 WAT        26.6590   27.8440   19.8410 O      32520 WAT       0.0459
  32521 WAT        26.6590   27.8440   20.0910 O      32521 WAT       0.0467
  32522 WAT        26.6590   27.8440   20.3410 O      32522 WAT       0.0450
  32523 WAT        26.6590   27.8440   21.5910 O      32523 WAT       0.0462
  32524 WAT        26.6590   27.8440   21.8410 O      32524 WAT       0.0474
  32525 WAT        26.6590   27.8440   22.0910 O      32525 WAT       0.0455
  32526 WAT        26.6590   30.0940   15.0910 O      32526 WAT       0.0585
  32527 WAT        26.6590   30.0940   15.3410 O      32527 WAT       0.0549
  32528 WAT        26.6590   30.3440   14.8410 O      32528 WAT       0.0500
  32529 WAT        26.6590   30.3440   15.0910 O      32529 WAT       0.0741
  32530 WAT        26.6590   30.3440   15.3410 O      32530 WAT       0.0762
  32531 WAT        26.6590   30.3440   15.5910 O      32531 WAT       0.0554
  32532 WAT        26.6590   30.5940   14.8410 O      32532 WAT       0.0507
  32533 WAT        26.6590   30.5940   15.0910 O      32533 WAT       0.0840
  32534 WAT        26.6590   30.5940   15.3410 O      32534 WAT       0.0955
  32535 WAT        26.6590   30.5940   15.5910 O      32535 WAT       0.0756
  32536 WAT        26.6590   30.8440   14.8410 O      32536 WAT       0.0453
  32537 WAT        26.6590   30.8440   15.0910 O      32537 WAT       0.0838
  32538 WAT        26.6590   30.8440   15.3410 O      32538 WAT       0.1050
  32539 WAT        26.6590   30.8440   15.5910 O      32539 WAT       0.0902
  32540 WAT        26.6590   30.8440   15.8410 O      32540 WAT       0.0537
  32541 WAT        26.6590   30.8440   22.8410 O      32541 WAT       0.0454
  32542 WAT        26.6590   30.8440   23.0910 O      32542 WAT       0.0477
  32543 WAT        26.6590   30.8440   23.3410 O      32543 WAT       0.0482
  32544 WAT        26.6590   30.8440   23.5910 O      32544 WAT       0.0469
  32545 WAT        26.6590   30.8440   23.8410 O      32545 WAT       0.0452
  32546 WAT        26.6590   31.0940   15.0910 O      32546 WAT       0.0735
  32547 WAT        26.6590   31.0940   15.3410 O      32547 WAT       0.1003
  32548 WAT        26.6590   31.0940   15.5910 O      32548 WAT       0.0926
  32549 WAT        26.6590   31.0940   15.8410 O      32549 WAT       0.0582
  32550 WAT        26.6590   31.0940   22.8410 O      32550 WAT       0.0472
  32551 WAT        26.6590   31.0940   23.0910 O      32551 WAT       0.0496
  32552 WAT        26.6590   31.0940   23.3410 O      32552 WAT       0.0497
  32553 WAT        26.6590   31.0940   23.5910 O      32553 WAT       0.0478
  32554 WAT        26.6590   31.0940   23.8410 O      32554 WAT       0.0451
  32555 WAT        26.6590   31.3440   15.0910 O      32555 WAT       0.0573
  32556 WAT        26.6590   31.3440   15.3410 O      32556 WAT       0.0838
  32557 WAT        26.6590   31.3440   15.5910 O      32557 WAT       0.0817
  32558 WAT        26.6590   31.3440   15.8410 O      32558 WAT       0.0534
  32559 WAT        26.6590   31.3440   22.8410 O      32559 WAT       0.0460
  32560 WAT        26.6590   31.3440   23.0910 O      32560 WAT       0.0476
  32561 WAT        26.6590   31.3440   23.3410 O      32561 WAT       0.0470
  32562 WAT        26.6590   31.5940   15.3410 O      32562 WAT       0.0616
  32563 WAT        26.6590   31.5940   15.5910 O      32563 WAT       0.0622
  32564 WAT        26.6590   33.8440   11.0910 O      32564 WAT       0.0463
  32565 WAT        26.6590   33.8440   11.3410 O      32565 WAT       0.0594
  32566 WAT        26.6590   33.8440   11.5910 O      32566 WAT       0.0543
  32567 WAT        26.6590   34.0940   11.3410 O      32567 WAT       0.0599
  32568 WAT        26.6590   34.0940   11.5910 O      32568 WAT       0.0590
  32569 WAT        26.6590   34.3440   11.5910 O      32569 WAT       0.0453
  32570 WAT        26.9090   10.3440   28.8410 O      32570 WAT       0.0487
  32571 WAT        26.9090   10.3440   29.0910 O      32571 WAT       0.0498
  32572 WAT        26.9090   10.5940   28.8410 O      32572 WAT       0.0519
  32573 WAT        26.9090   10.5940   29.0910 O      32573 WAT       0.0541
  32574 WAT        26.9090   10.5940   29.3410 O      32574 WAT       0.0460
  32575 WAT        26.9090   10.8440   28.8410 O      32575 WAT       0.0525
  32576 WAT        26.9090   10.8440   29.0910 O      32576 WAT       0.0562
  32577 WAT        26.9090   10.8440   29.3410 O      32577 WAT       0.0489
  32578 WAT        26.9090   11.0940   25.5910 O      32578 WAT       0.0458
  32579 WAT        26.9090   11.0940   28.8410 O      32579 WAT       0.0508
  32580 WAT        26.9090   11.0940   29.0910 O      32580 WAT       0.0561
  32581 WAT        26.9090   11.0940   29.3410 O      32581 WAT       0.0503
  32582 WAT        26.9090   11.3440   25.5910 O      32582 WAT       0.0475
  32583 WAT        26.9090   11.3440   25.8410 O      32583 WAT       0.0460
  32584 WAT        26.9090   11.3440   28.8410 O      32584 WAT       0.0478
  32585 WAT        26.9090   11.3440   29.0910 O      32585 WAT       0.0541
  32586 WAT        26.9090   11.3440   29.3410 O      32586 WAT       0.0497
  32587 WAT        26.9090   11.5940   25.5910 O      32587 WAT       0.0495
  32588 WAT        26.9090   11.5940   25.8410 O      32588 WAT       0.0490
  32589 WAT        26.9090   11.5940   29.0910 O      32589 WAT       0.0505
  32590 WAT        26.9090   11.5940   29.3410 O      32590 WAT       0.0469
  32591 WAT        26.9090   11.8440   25.5910 O      32591 WAT       0.0522
  32592 WAT        26.9090   11.8440   25.8410 O      32592 WAT       0.0526
  32593 WAT        26.9090   11.8440   26.0910 O      32593 WAT       0.0463
  32594 WAT        26.9090   11.8440   29.0910 O      32594 WAT       0.0459
  32595 WAT        26.9090   12.0940   25.3410 O      32595 WAT       0.0473
  32596 WAT        26.9090   12.0940   25.5910 O      32596 WAT       0.0552
  32597 WAT        26.9090   12.0940   25.8410 O      32597 WAT       0.0558
  32598 WAT        26.9090   12.0940   26.0910 O      32598 WAT       0.0494
  32599 WAT        26.9090   12.3440   25.3410 O      32599 WAT       0.0496
  32600 WAT        26.9090   12.3440   25.5910 O      32600 WAT       0.0574
  32601 WAT        26.9090   12.3440   25.8410 O      32601 WAT       0.0579
  32602 WAT        26.9090   12.3440   26.0910 O      32602 WAT       0.0513
  32603 WAT        26.9090   12.5940   25.3410 O      32603 WAT       0.0511
  32604 WAT        26.9090   12.5940   25.5910 O      32604 WAT       0.0586
  32605 WAT        26.9090   12.5940   25.8410 O      32605 WAT       0.0588
  32606 WAT        26.9090   12.5940   26.0910 O      32606 WAT       0.0520
  32607 WAT        26.9090   12.8440   25.3410 O      32607 WAT       0.0518
  32608 WAT        26.9090   12.8440   25.5910 O      32608 WAT       0.0589
  32609 WAT        26.9090   12.8440   25.8410 O      32609 WAT       0.0587
  32610 WAT        26.9090   12.8440   26.0910 O      32610 WAT       0.0517
  32611 WAT        26.9090   13.0940   25.3410 O      32611 WAT       0.0515
  32612 WAT        26.9090   13.0940   25.5910 O      32612 WAT       0.0581
  32613 WAT        26.9090   13.0940   25.8410 O      32613 WAT       0.0575
  32614 WAT        26.9090   13.0940   26.0910 O      32614 WAT       0.0504
  32615 WAT        26.9090   13.3440   21.0910 O      32615 WAT       0.0458
  32616 WAT        26.9090   13.3440   25.3410 O      32616 WAT       0.0505
  32617 WAT        26.9090   13.3440   25.5910 O      32617 WAT       0.0562
  32618 WAT        26.9090   13.3440   25.8410 O      32618 WAT       0.0553
  32619 WAT        26.9090   13.3440   26.0910 O      32619 WAT       0.0481
  32620 WAT        26.9090   13.5940   20.8410 O      32620 WAT       0.0466
  32621 WAT        26.9090   13.5940   21.0910 O      32621 WAT       0.0488
  32622 WAT        26.9090   13.5940   21.3410 O      32622 WAT       0.0470
  32623 WAT        26.9090   13.5940   25.3410 O      32623 WAT       0.0494
  32624 WAT        26.9090   13.5940   25.5910 O      32624 WAT       0.0536
  32625 WAT        26.9090   13.5940   25.8410 O      32625 WAT       0.0521
  32626 WAT        26.9090   13.8440   20.8410 O      32626 WAT       0.0483
  32627 WAT        26.9090   13.8440   21.0910 O      32627 WAT       0.0508
  32628 WAT        26.9090   13.8440   21.3410 O      32628 WAT       0.0494
  32629 WAT        26.9090   13.8440   21.5910 O      32629 WAT       0.0453
  32630 WAT        26.9090   13.8440   25.3410 O      32630 WAT       0.0488
  32631 WAT        26.9090   13.8440   25.5910 O      32631 WAT       0.0507
  32632 WAT        26.9090   13.8440   25.8410 O      32632 WAT       0.0480
  32633 WAT        26.9090   14.0940   20.8410 O      32633 WAT       0.0490
  32634 WAT        26.9090   14.0940   21.0910 O      32634 WAT       0.0514
  32635 WAT        26.9090   14.0940   21.3410 O      32635 WAT       0.0504
  32636 WAT        26.9090   14.0940   21.5910 O      32636 WAT       0.0468
  32637 WAT        26.9090   14.0940   25.0910 O      32637 WAT       0.0465
  32638 WAT        26.9090   14.0940   25.3410 O      32638 WAT       0.0488
  32639 WAT        26.9090   14.0940   25.5910 O      32639 WAT       0.0479
  32640 WAT        26.9090   14.3440   20.8410 O      32640 WAT       0.0481
  32641 WAT        26.9090   14.3440   21.0910 O      32641 WAT       0.0503
  32642 WAT        26.9090   14.3440   21.3410 O      32642 WAT       0.0497
  32643 WAT        26.9090   14.3440   21.5910 O      32643 WAT       0.0466
  32644 WAT        26.9090   14.3440   24.8410 O      32644 WAT       0.0473
  32645 WAT        26.9090   14.3440   25.0910 O      32645 WAT       0.0497
  32646 WAT        26.9090   14.3440   25.3410 O      32646 WAT       0.0490
  32647 WAT        26.9090   14.3440   25.5910 O      32647 WAT       0.0450
  32648 WAT        26.9090   14.5940   17.0910 O      32648 WAT       0.0460
  32649 WAT        26.9090   14.5940   17.3410 O      32649 WAT       0.0475
  32650 WAT        26.9090   14.5940   17.5910 O      32650 WAT       0.0464
  32651 WAT        26.9090   14.5940   20.8410 O      32651 WAT       0.0452
  32652 WAT        26.9090   14.5940   21.0910 O      32652 WAT       0.0472
  32653 WAT        26.9090   14.5940   21.3410 O      32653 WAT       0.0467
  32654 WAT        26.9090   14.5940   24.3410 O      32654 WAT       0.0454
  32655 WAT        26.9090   14.5940   24.5910 O      32655 WAT       0.0504
  32656 WAT        26.9090   14.5940   24.8410 O      32656 WAT       0.0531
  32657 WAT        26.9090   14.5940   25.0910 O      32657 WAT       0.0526
  32658 WAT        26.9090   14.5940   25.3410 O      32658 WAT       0.0485
  32659 WAT        26.9090   14.8440   17.0910 O      32659 WAT       0.0475
  32660 WAT        26.9090   14.8440   17.3410 O      32660 WAT       0.0523
  32661 WAT        26.9090   14.8440   17.5910 O      32661 WAT       0.0541
  32662 WAT        26.9090   14.8440   17.8410 O      32662 WAT       0.0522
  32663 WAT        26.9090   14.8440   18.0910 O      32663 WAT       0.0464
  32664 WAT        26.9090   14.8440   24.3410 O      32664 WAT       0.0514
  32665 WAT        26.9090   14.8440   24.5910 O      32665 WAT       0.0572
  32666 WAT        26.9090   14.8440   24.8410 O      32666 WAT       0.0585
  32667 WAT        26.9090   14.8440   25.0910 O      32667 WAT       0.0548
  32668 WAT        26.9090   14.8440   25.3410 O      32668 WAT       0.0473
  32669 WAT        26.9090   15.0940   17.3410 O      32669 WAT       0.0519
  32670 WAT        26.9090   15.0940   17.5910 O      32670 WAT       0.0572
  32671 WAT        26.9090   15.0940   17.8410 O      32671 WAT       0.0574
  32672 WAT        26.9090   15.0940   18.0910 O      32672 WAT       0.0526
  32673 WAT        26.9090   15.0940   18.3410 O      32673 WAT       0.0451
  32674 WAT        26.9090   15.0940   24.0910 O      32674 WAT       0.0453
  32675 WAT        26.9090   15.0940   24.3410 O      32675 WAT       0.0550
  32676 WAT        26.9090   15.0940   24.5910 O      32676 WAT       0.0614
  32677 WAT        26.9090   15.0940   24.8410 O      32677 WAT       0.0616
  32678 WAT        26.9090   15.0940   25.0910 O      32678 WAT       0.0554
  32679 WAT        26.9090   15.0940   25.3410 O      32679 WAT       0.0453
  32680 WAT        26.9090   15.3440   17.3410 O      32680 WAT       0.0451
  32681 WAT        26.9090   15.3440   17.5910 O      32681 WAT       0.0531
  32682 WAT        26.9090   15.3440   17.8410 O      32682 WAT       0.0563
  32683 WAT        26.9090   15.3440   18.0910 O      32683 WAT       0.0539
  32684 WAT        26.9090   15.3440   18.3410 O      32684 WAT       0.0479
  32685 WAT        26.9090   15.3440   24.0910 O      32685 WAT       0.0452
  32686 WAT        26.9090   15.3440   24.3410 O      32686 WAT       0.0552
  32687 WAT        26.9090   15.3440   24.5910 O      32687 WAT       0.0616
  32688 WAT        26.9090   15.3440   24.8410 O      32688 WAT       0.0611
  32689 WAT        26.9090   15.3440   25.0910 O      32689 WAT       0.0536
  32690 WAT        26.9090   15.5940   17.8410 O      32690 WAT       0.0489
  32691 WAT        26.9090   15.5940   18.0910 O      32691 WAT       0.0500
  32692 WAT        26.9090   15.5940   18.3410 O      32692 WAT       0.0468
  32693 WAT        26.9090   15.5940   24.3410 O      32693 WAT       0.0529
  32694 WAT        26.9090   15.5940   24.5910 O      32694 WAT       0.0584
  32695 WAT        26.9090   15.5940   24.8410 O      32695 WAT       0.0572
  32696 WAT        26.9090   15.5940   25.0910 O      32696 WAT       0.0494
  32697 WAT        26.9090   15.8440   24.3410 O      32697 WAT       0.0492
  32698 WAT        26.9090   15.8440   24.5910 O      32698 WAT       0.0533
  32699 WAT        26.9090   15.8440   24.8410 O      32699 WAT       0.0514
  32700 WAT        26.9090   16.0940   24.5910 O      32700 WAT       0.0474
  32701 WAT        26.9090   16.8440   28.3410 O      32701 WAT       0.0486
  32702 WAT        26.9090   16.8440   28.5910 O      32702 WAT       0.0474
  32703 WAT        26.9090   17.0940    8.8410 O      32703 WAT       0.0451
  32704 WAT        26.9090   17.0940   18.5910 O      32704 WAT       0.0480
  32705 WAT        26.9090   17.0940   28.0910 O      32705 WAT       0.0552
  32706 WAT        26.9090   17.0940   28.3410 O      32706 WAT       0.0623
  32707 WAT        26.9090   17.0940   28.5910 O      32707 WAT       0.0625
  32708 WAT        26.9090   17.0940   28.8410 O      32708 WAT       0.0550
  32709 WAT        26.9090   17.3440    8.3410 O      32709 WAT       0.0492
  32710 WAT        26.9090   17.3440    8.5910 O      32710 WAT       0.0581
  32711 WAT        26.9090   17.3440    8.8410 O      32711 WAT       0.0524
  32712 WAT        26.9090   17.3440   18.3410 O      32712 WAT       0.0469
  32713 WAT        26.9090   17.3440   18.5910 O      32713 WAT       0.0553
  32714 WAT        26.9090   17.3440   18.8410 O      32714 WAT       0.0525
  32715 WAT        26.9090   17.3440   27.8410 O      32715 WAT       0.0477
  32716 WAT        26.9090   17.3440   28.0910 O      32716 WAT       0.0615
  32717 WAT        26.9090   17.3440   28.3410 O      32717 WAT       0.0720
  32718 WAT        26.9090   17.3440   28.5910 O      32718 WAT       0.0749
  32719 WAT        26.9090   17.3440   28.8410 O      32719 WAT       0.0680
  32720 WAT        26.9090   17.3440   29.0910 O      32720 WAT       0.0531
  32721 WAT        26.9090   17.5940    8.3410 O      32721 WAT       0.0576
  32722 WAT        26.9090   17.5940    8.5910 O      32722 WAT       0.0629
  32723 WAT        26.9090   17.5940    8.8410 O      32723 WAT       0.0506
  32724 WAT        26.9090   17.5940   18.3410 O      32724 WAT       0.0524
  32725 WAT        26.9090   17.5940   18.5910 O      32725 WAT       0.0631
  32726 WAT        26.9090   17.5940   18.8410 O      32726 WAT       0.0610
  32727 WAT        26.9090   17.5940   19.0910 O      32727 WAT       0.0504
  32728 WAT        26.9090   17.5940   27.8410 O      32728 WAT       0.0458
  32729 WAT        26.9090   17.5940   28.0910 O      32729 WAT       0.0606
  32730 WAT        26.9090   17.5940   28.3410 O      32730 WAT       0.0735
  32731 WAT        26.9090   17.5940   28.5910 O      32731 WAT       0.0796
  32732 WAT        26.9090   17.5940   28.8410 O      32732 WAT       0.0751
  32733 WAT        26.9090   17.5940   29.0910 O      32733 WAT       0.0602
  32734 WAT        26.9090   17.8440    8.3410 O      32734 WAT       0.0528
  32735 WAT        26.9090   17.8440    8.5910 O      32735 WAT       0.0537
  32736 WAT        26.9090   17.8440   18.3410 O      32736 WAT       0.0545
  32737 WAT        26.9090   17.8440   18.5910 O      32737 WAT       0.0673
  32738 WAT        26.9090   17.8440   18.8410 O      32738 WAT       0.0669
  32739 WAT        26.9090   17.8440   19.0910 O      32739 WAT       0.0568
  32740 WAT        26.9090   17.8440   22.5910 O      32740 WAT       0.0460
  32741 WAT        26.9090   17.8440   22.8410 O      32741 WAT       0.0474
  32742 WAT        26.9090   17.8440   23.0910 O      32742 WAT       0.0463
  32743 WAT        26.9090   17.8440   28.0910 O      32743 WAT       0.0537
  32744 WAT        26.9090   17.8440   28.3410 O      32744 WAT       0.0665
  32745 WAT        26.9090   17.8440   28.5910 O      32745 WAT       0.0746
  32746 WAT        26.9090   17.8440   28.8410 O      32746 WAT       0.0729
  32747 WAT        26.9090   17.8440   29.0910 O      32747 WAT       0.0602
  32748 WAT        26.9090   18.0940   18.3410 O      32748 WAT       0.0496
  32749 WAT        26.9090   18.0940   18.5910 O      32749 WAT       0.0634
  32750 WAT        26.9090   18.0940   18.8410 O      32750 WAT       0.0660
  32751 WAT        26.9090   18.0940   19.0910 O      32751 WAT       0.0588
  32752 WAT        26.9090   18.0940   19.3410 O      32752 WAT       0.0487
  32753 WAT        26.9090   18.0940   22.0910 O      32753 WAT       0.0454
  32754 WAT        26.9090   18.0940   22.3410 O      32754 WAT       0.0523
  32755 WAT        26.9090   18.0940   22.5910 O      32755 WAT       0.0575
  32756 WAT        26.9090   18.0940   22.8410 O      32756 WAT       0.0583
  32757 WAT        26.9090   18.0940   23.0910 O      32757 WAT       0.0545
  32758 WAT        26.9090   18.0940   23.3410 O      32758 WAT       0.0485
  32759 WAT        26.9090   18.0940   28.3410 O      32759 WAT       0.0547
  32760 WAT        26.9090   18.0940   28.5910 O      32760 WAT       0.0625
  32761 WAT        26.9090   18.0940   28.8410 O      32761 WAT       0.0628
  32762 WAT        26.9090   18.0940   29.0910 O      32762 WAT       0.0535
  32763 WAT        26.9090   18.3440   18.5910 O      32763 WAT       0.0510
  32764 WAT        26.9090   18.3440   18.8410 O      32764 WAT       0.0566
  32765 WAT        26.9090   18.3440   19.0910 O      32765 WAT       0.0543
  32766 WAT        26.9090   18.3440   19.3410 O      32766 WAT       0.0487
  32767 WAT        26.9090   18.3440   22.0910 O      32767 WAT       0.0490
  32768 WAT        26.9090   18.3440   22.3410 O      32768 WAT       0.0575
  32769 WAT        26.9090   18.3440   22.5910 O      32769 WAT       0.0637
  32770 WAT        26.9090   18.3440   22.8410 O      32770 WAT       0.0636
  32771 WAT        26.9090   18.3440   23.0910 O      32771 WAT       0.0568
  32772 WAT        26.9090   18.3440   23.3410 O      32772 WAT       0.0469
  32773 WAT        26.9090   18.3440   28.5910 O      32773 WAT       0.0480
  32774 WAT        26.9090   18.3440   28.8410 O      32774 WAT       0.0493
  32775 WAT        26.9090   18.5940   22.0910 O      32775 WAT       0.0452
  32776 WAT        26.9090   18.5940   22.3410 O      32776 WAT       0.0543
  32777 WAT        26.9090   18.5940   22.5910 O      32777 WAT       0.0604
  32778 WAT        26.9090   18.5940   22.8410 O      32778 WAT       0.0594
  32779 WAT        26.9090   18.5940   23.0910 O      32779 WAT       0.0509
  32780 WAT        26.9090   18.8440    6.3410 O      32780 WAT       0.0570
  32781 WAT        26.9090   18.8440    6.5910 O      32781 WAT       0.0628
  32782 WAT        26.9090   18.8440    6.8410 O      32782 WAT       0.0534
  32783 WAT        26.9090   18.8440   22.5910 O      32783 WAT       0.0484
  32784 WAT        26.9090   18.8440   22.8410 O      32784 WAT       0.0469
  32785 WAT        26.9090   19.0940    6.0910 O      32785 WAT       0.0753
  32786 WAT        26.9090   19.0940    6.3410 O      32786 WAT       0.0994
  32787 WAT        26.9090   19.0940    6.5910 O      32787 WAT       0.1003
  32788 WAT        26.9090   19.0940    6.8410 O      32788 WAT       0.0767
  32789 WAT        26.9090   19.3440    3.3410 O      32789 WAT       0.0471
  32790 WAT        26.9090   19.3440    3.5910 O      32790 WAT       0.0498
  32791 WAT        26.9090   19.3440    5.8410 O      32791 WAT       0.0660
  32792 WAT        26.9090   19.3440    6.0910 O      32792 WAT       0.1025
  32793 WAT        26.9090   19.3440    6.3410 O      32793 WAT       0.1250
  32794 WAT        26.9090   19.3440    6.5910 O      32794 WAT       0.1162
  32795 WAT        26.9090   19.3440    6.8410 O      32795 WAT       0.0813
  32796 WAT        26.9090   19.5940    3.0910 O      32796 WAT       0.0506
  32797 WAT        26.9090   19.5940    3.3410 O      32797 WAT       0.0618
  32798 WAT        26.9090   19.5940    3.5910 O      32798 WAT       0.0642
  32799 WAT        26.9090   19.5940    3.8410 O      32799 WAT       0.0534
  32800 WAT        26.9090   19.5940    5.8410 O      32800 WAT       0.0669
  32801 WAT        26.9090   19.5940    6.0910 O      32801 WAT       0.0955
  32802 WAT        26.9090   19.5940    6.3410 O      32802 WAT       0.1071
  32803 WAT        26.9090   19.5940    6.5910 O      32803 WAT       0.0918
  32804 WAT        26.9090   19.5940    6.8410 O      32804 WAT       0.0590
  32805 WAT        26.9090   19.8440    3.0910 O      32805 WAT       0.0560
  32806 WAT        26.9090   19.8440    3.3410 O      32806 WAT       0.0657
  32807 WAT        26.9090   19.8440    3.5910 O      32807 WAT       0.0655
  32808 WAT        26.9090   19.8440    3.8410 O      32808 WAT       0.0521
  32809 WAT        26.9090   19.8440    5.8410 O      32809 WAT       0.0451
  32810 WAT        26.9090   19.8440    6.0910 O      32810 WAT       0.0590
  32811 WAT        26.9090   19.8440    6.3410 O      32811 WAT       0.0605
  32812 WAT        26.9090   19.8440    6.5910 O      32812 WAT       0.0475
  32813 WAT        26.9090   20.0940    3.0910 O      32813 WAT       0.0503
  32814 WAT        26.9090   20.0940    3.3410 O      32814 WAT       0.0547
  32815 WAT        26.9090   20.0940    3.5910 O      32815 WAT       0.0509
  32816 WAT        26.9090   21.0940   19.5910 O      32816 WAT       0.0450
  32817 WAT        26.9090   21.3440   19.3410 O      32817 WAT       0.0490
  32818 WAT        26.9090   21.3440   19.5910 O      32818 WAT       0.0547
  32819 WAT        26.9090   21.3440   19.8410 O      32819 WAT       0.0491
  32820 WAT        26.9090   21.5940   19.3410 O      32820 WAT       0.0589
  32821 WAT        26.9090   21.5940   19.5910 O      32821 WAT       0.0636
  32822 WAT        26.9090   21.5940   19.8410 O      32822 WAT       0.0557
  32823 WAT        26.9090   21.8440   19.0910 O      32823 WAT       0.0503
  32824 WAT        26.9090   21.8440   19.3410 O      32824 WAT       0.0653
  32825 WAT        26.9090   21.8440   19.5910 O      32825 WAT       0.0691
  32826 WAT        26.9090   21.8440   19.8410 O      32826 WAT       0.0599
  32827 WAT        26.9090   22.0940   19.0910 O      32827 WAT       0.0513
  32828 WAT        26.9090   22.0940   19.3410 O      32828 WAT       0.0660
  32829 WAT        26.9090   22.0940   19.5910 O      32829 WAT       0.0692
  32830 WAT        26.9090   22.0940   19.8410 O      32830 WAT       0.0598
  32831 WAT        26.9090   22.3440   19.0910 O      32831 WAT       0.0470
  32832 WAT        26.9090   22.3440   19.3410 O      32832 WAT       0.0601
  32833 WAT        26.9090   22.3440   19.5910 O      32833 WAT       0.0629
  32834 WAT        26.9090   22.3440   19.8410 O      32834 WAT       0.0549
  32835 WAT        26.9090   22.3440   24.0910 O      32835 WAT       0.0480
  32836 WAT        26.9090   22.5940   19.3410 O      32836 WAT       0.0491
  32837 WAT        26.9090   22.5940   19.5910 O      32837 WAT       0.0519
  32838 WAT        26.9090   22.5940   19.8410 O      32838 WAT       0.0464
  32839 WAT        26.9090   22.5940   23.8410 O      32839 WAT       0.0513
  32840 WAT        26.9090   22.5940   24.0910 O      32840 WAT       0.0560
  32841 WAT        26.9090   22.5940   24.3410 O      32841 WAT       0.0521
  32842 WAT        26.9090   22.8440   23.8410 O      32842 WAT       0.0556
  32843 WAT        26.9090   22.8440   24.0910 O      32843 WAT       0.0613
  32844 WAT        26.9090   22.8440   24.3410 O      32844 WAT       0.0578
  32845 WAT        26.9090   22.8440   24.5910 O      32845 WAT       0.0476
  32846 WAT        26.9090   23.0940   23.8410 O      32846 WAT       0.0567
  32847 WAT        26.9090   23.0940   24.0910 O      32847 WAT       0.0638
  32848 WAT        26.9090   23.0940   24.3410 O      32848 WAT       0.0619
  32849 WAT        26.9090   23.0940   24.5910 O      32849 WAT       0.0524
  32850 WAT        26.9090   23.3440   23.8410 O      32850 WAT       0.0551
  32851 WAT        26.9090   23.3440   24.0910 O      32851 WAT       0.0632
  32852 WAT        26.9090   23.3440   24.3410 O      32852 WAT       0.0632
  32853 WAT        26.9090   23.3440   24.5910 O      32853 WAT       0.0552
  32854 WAT        26.9090   23.5940   23.8410 O      32854 WAT       0.0501
  32855 WAT        26.9090   23.5940   24.0910 O      32855 WAT       0.0579
  32856 WAT        26.9090   23.5940   24.3410 O      32856 WAT       0.0591
  32857 WAT        26.9090   23.5940   24.5910 O      32857 WAT       0.0531
  32858 WAT        26.9090   23.8440   24.0910 O      32858 WAT       0.0470
  32859 WAT        26.9090   23.8440   24.3410 O      32859 WAT       0.0487
  32860 WAT        26.9090   24.3440    2.5910 O      32860 WAT       0.0812
  32861 WAT        26.9090   24.3440    2.8410 O      32861 WAT       0.0549
  32862 WAT        26.9090   24.3440   18.0910 O      32862 WAT       0.0617
  32863 WAT        26.9090   24.3440   18.3410 O      32863 WAT       0.0681
  32864 WAT        26.9090   24.3440   18.5910 O      32864 WAT       0.0605
  32865 WAT        26.9090   24.3440   18.8410 O      32865 WAT       0.0457
  32866 WAT        26.9090   24.5940    2.5910 O      32866 WAT       0.1206
  32867 WAT        26.9090   24.5940    2.8410 O      32867 WAT       0.0812
  32868 WAT        26.9090   24.5940   17.8410 O      32868 WAT       0.0685
  32869 WAT        26.9090   24.5940   18.0910 O      32869 WAT       0.0942
  32870 WAT        26.9090   24.5940   18.3410 O      32870 WAT       0.1019
  32871 WAT        26.9090   24.5940   18.5910 O      32871 WAT       0.0886
  32872 WAT        26.9090   24.5940   18.8410 O      32872 WAT       0.0646
  32873 WAT        26.9090   24.8440    2.5910 O      32873 WAT       0.1382
  32874 WAT        26.9090   24.8440    2.8410 O      32874 WAT       0.0920
  32875 WAT        26.9090   24.8440   17.5910 O      32875 WAT       0.0496
  32876 WAT        26.9090   24.8440   17.8410 O      32876 WAT       0.0835
  32877 WAT        26.9090   24.8440   18.0910 O      32877 WAT       0.1129
  32878 WAT        26.9090   24.8440   18.3410 O      32878 WAT       0.1224
  32879 WAT        26.9090   24.8440   18.5910 O      32879 WAT       0.1075
  32880 WAT        26.9090   24.8440   18.8410 O      32880 WAT       0.0788
  32881 WAT        26.9090   24.8440   19.0910 O      32881 WAT       0.0516
  32882 WAT        26.9090   25.0940    2.5910 O      32882 WAT       0.1189
  32883 WAT        26.9090   25.0940    2.8410 O      32883 WAT       0.0782
  32884 WAT        26.9090   25.0940   17.5910 O      32884 WAT       0.0503
  32885 WAT        26.9090   25.0940   17.8410 O      32885 WAT       0.0806
  32886 WAT        26.9090   25.0940   18.0910 O      32886 WAT       0.1084
  32887 WAT        26.9090   25.0940   18.3410 O      32887 WAT       0.1202
  32888 WAT        26.9090   25.0940   18.5910 O      32888 WAT       0.1090
  32889 WAT        26.9090   25.0940   18.8410 O      32889 WAT       0.0823
  32890 WAT        26.9090   25.0940   19.0910 O      32890 WAT       0.0544
  32891 WAT        26.9090   25.3440    2.5910 O      32891 WAT       0.0760
  32892 WAT        26.9090   25.3440    2.8410 O      32892 WAT       0.0493
  32893 WAT        26.9090   25.3440   17.8410 O      32893 WAT       0.0641
  32894 WAT        26.9090   25.3440   18.0910 O      32894 WAT       0.0867
  32895 WAT        26.9090   25.3440   18.3410 O      32895 WAT       0.0995
  32896 WAT        26.9090   25.3440   18.5910 O      32896 WAT       0.0945
  32897 WAT        26.9090   25.3440   18.8410 O      32897 WAT       0.0745
  32898 WAT        26.9090   25.3440   19.0910 O      32898 WAT       0.0507
  32899 WAT        26.9090   25.5940   18.0910 O      32899 WAT       0.0608
  32900 WAT        26.9090   25.5940   18.3410 O      32900 WAT       0.0729
  32901 WAT        26.9090   25.5940   18.5910 O      32901 WAT       0.0731
  32902 WAT        26.9090   25.5940   18.8410 O      32902 WAT       0.0607
  32903 WAT        26.9090   25.8440   18.3410 O      32903 WAT       0.0502
  32904 WAT        26.9090   25.8440   18.5910 O      32904 WAT       0.0534
  32905 WAT        26.9090   25.8440   18.8410 O      32905 WAT       0.0469
  32906 WAT        26.9090   26.0940   16.0910 O      32906 WAT       0.0542
  32907 WAT        26.9090   26.0940   16.3410 O      32907 WAT       0.0671
  32908 WAT        26.9090   26.0940   16.5910 O      32908 WAT       0.0610
  32909 WAT        26.9090   26.3440   15.8410 O      32909 WAT       0.0459
  32910 WAT        26.9090   26.3440   16.0910 O      32910 WAT       0.0740
  32911 WAT        26.9090   26.3440   16.3410 O      32911 WAT       0.0821
  32912 WAT        26.9090   26.3440   16.5910 O      32912 WAT       0.0664
  32913 WAT        26.9090   26.5940   15.8410 O      32913 WAT       0.0527
  32914 WAT        26.9090   26.5940   16.0910 O      32914 WAT       0.0777
  32915 WAT        26.9090   26.5940   16.3410 O      32915 WAT       0.0789
  32916 WAT        26.9090   26.5940   16.5910 O      32916 WAT       0.0583
  32917 WAT        26.9090   26.8440   15.8410 O      32917 WAT       0.0471
  32918 WAT        26.9090   26.8440   16.0910 O      32918 WAT       0.0638
  32919 WAT        26.9090   26.8440   16.3410 O      32919 WAT       0.0604
  32920 WAT        26.9090   27.3440   21.5910 O      32920 WAT       0.0462
  32921 WAT        26.9090   27.3440   21.8410 O      32921 WAT       0.0473
  32922 WAT        26.9090   27.5940   21.5910 O      32922 WAT       0.0486
  32923 WAT        26.9090   27.5940   21.8410 O      32923 WAT       0.0509
  32924 WAT        26.9090   27.5940   22.0910 O      32924 WAT       0.0493
  32925 WAT        26.9090   27.8440   21.8410 O      32925 WAT       0.0464
  32926 WAT        26.9090   27.8440   22.0910 O      32926 WAT       0.0464
  32927 WAT        26.9090   28.0940   19.3410 O      32927 WAT       0.0456
  32928 WAT        26.9090   28.0940   19.5910 O      32928 WAT       0.0483
  32929 WAT        26.9090   28.0940   19.8410 O      32929 WAT       0.0477
  32930 WAT        26.9090   28.3440   19.3410 O      32930 WAT       0.0472
  32931 WAT        26.9090   28.3440   19.5910 O      32931 WAT       0.0501
  32932 WAT        26.9090   28.3440   19.8410 O      32932 WAT       0.0489
  32933 WAT        26.9090   28.5940   19.5910 O      32933 WAT       0.0482
  32934 WAT        26.9090   28.5940   19.8410 O      32934 WAT       0.0473
  32935 WAT        26.9090   30.5940   22.3410 O      32935 WAT       0.0461
  32936 WAT        26.9090   30.5940   22.5910 O      32936 WAT       0.0474
  32937 WAT        26.9090   30.5940   22.8410 O      32937 WAT       0.0471
  32938 WAT        26.9090   30.5940   23.0910 O      32938 WAT       0.0454
  32939 WAT        26.9090   30.8440   22.3410 O      32939 WAT       0.0480
  32940 WAT        26.9090   30.8440   22.5910 O      32940 WAT       0.0495
  32941 WAT        26.9090   30.8440   22.8410 O      32941 WAT       0.0495
  32942 WAT        26.9090   30.8440   23.0910 O      32942 WAT       0.0478
  32943 WAT        26.9090   31.0940   22.3410 O      32943 WAT       0.0468
  32944 WAT        26.9090   31.0940   22.5910 O      32944 WAT       0.0485
  32945 WAT        26.9090   31.0940   22.8410 O      32945 WAT       0.0485
  32946 WAT        26.9090   31.0940   23.0910 O      32946 WAT       0.0467
  32947 WAT        26.9090   31.3440   22.5910 O      32947 WAT       0.0453
  32948 WAT        26.9090   31.3440   22.8410 O      32948 WAT       0.0451
  32949 WAT        27.1590   10.8440   29.0910 O      32949 WAT       0.0457
  32950 WAT        27.1590   11.0940   29.0910 O      32950 WAT       0.0471
  32951 WAT        27.1590   11.3440   29.0910 O      32951 WAT       0.0474
  32952 WAT        27.1590   11.5940   23.0910 O      32952 WAT       0.0453
  32953 WAT        27.1590   11.5940   29.0910 O      32953 WAT       0.0460
  32954 WAT        27.1590   11.8440   23.0910 O      32954 WAT       0.0453
  32955 WAT        27.1590   11.8440   23.3410 O      32955 WAT       0.0451
  32956 WAT        27.1590   11.8440   25.5910 O      32956 WAT       0.0475
  32957 WAT        27.1590   11.8440   25.8410 O      32957 WAT       0.0471
  32958 WAT        27.1590   12.0940   23.3410 O      32958 WAT       0.0451
  32959 WAT        27.1590   12.0940   25.3410 O      32959 WAT       0.0465
  32960 WAT        27.1590   12.0940   25.5910 O      32960 WAT       0.0516
  32961 WAT        27.1590   12.0940   25.8410 O      32961 WAT       0.0513
  32962 WAT        27.1590   12.0940   26.0910 O      32962 WAT       0.0456
  32963 WAT        27.1590   12.3440   25.3410 O      32963 WAT       0.0496
  32964 WAT        27.1590   12.3440   25.5910 O      32964 WAT       0.0545
  32965 WAT        27.1590   12.3440   25.8410 O      32965 WAT       0.0538
  32966 WAT        27.1590   12.3440   26.0910 O      32966 WAT       0.0479
  32967 WAT        27.1590   12.5940   25.3410 O      32967 WAT       0.0511
  32968 WAT        27.1590   12.5940   25.5910 O      32968 WAT       0.0555
  32969 WAT        27.1590   12.5940   25.8410 O      32969 WAT       0.0545
  32970 WAT        27.1590   12.5940   26.0910 O      32970 WAT       0.0486
  32971 WAT        27.1590   12.8440   25.3410 O      32971 WAT       0.0508
  32972 WAT        27.1590   12.8440   25.5910 O      32972 WAT       0.0548
  32973 WAT        27.1590   12.8440   25.8410 O      32973 WAT       0.0537
  32974 WAT        27.1590   12.8440   26.0910 O      32974 WAT       0.0480
  32975 WAT        27.1590   13.0940   25.3410 O      32975 WAT       0.0489
  32976 WAT        27.1590   13.0940   25.5910 O      32976 WAT       0.0524
  32977 WAT        27.1590   13.0940   25.8410 O      32977 WAT       0.0513
  32978 WAT        27.1590   13.0940   26.0910 O      32978 WAT       0.0459
  32979 WAT        27.1590   13.3440   25.3410 O      32979 WAT       0.0461
  32980 WAT        27.1590   13.3440   25.5910 O      32980 WAT       0.0489
  32981 WAT        27.1590   13.3440   25.8410 O      32981 WAT       0.0476
  32982 WAT        27.1590   13.5940   25.5910 O      32982 WAT       0.0451
  32983 WAT        27.1590   14.8440   17.3410 O      32983 WAT       0.0464
  32984 WAT        27.1590   14.8440   17.5910 O      32984 WAT       0.0474
  32985 WAT        27.1590   14.8440   17.8410 O      32985 WAT       0.0458
  32986 WAT        27.1590   15.0940   17.3410 O      32986 WAT       0.0484
  32987 WAT        27.1590   15.0940   17.5910 O      32987 WAT       0.0514
  32988 WAT        27.1590   15.0940   17.8410 O      32988 WAT       0.0506
  32989 WAT        27.1590   15.0940   18.0910 O      32989 WAT       0.0461
  32990 WAT        27.1590   15.3440   17.3410 O      32990 WAT       0.0456
  32991 WAT        27.1590   15.3440   17.5910 O      32991 WAT       0.0502
  32992 WAT        27.1590   15.3440   17.8410 O      32992 WAT       0.0508
  32993 WAT        27.1590   15.3440   18.0910 O      32993 WAT       0.0473
  32994 WAT        27.1590   15.3440   24.5910 O      32994 WAT       0.0452
  32995 WAT        27.1590   15.3440   24.8410 O      32995 WAT       0.0461
  32996 WAT        27.1590   15.5940   17.8410 O      32996 WAT       0.0462
  32997 WAT        27.1590   15.5940   24.8410 O      32997 WAT       0.0456
  32998 WAT        27.1590   15.8440   12.8410 O      32998 WAT       0.0469
  32999 WAT        27.1590   15.8440   13.0910 O      32999 WAT       0.0497
  33000 WAT        27.1590   15.8440   13.3410 O      33000 WAT       0.0450
  33001 WAT        27.1590   16.0940   12.5910 O      33001 WAT       0.0528
  33002 WAT        27.1590   16.0940   12.8410 O      33002 WAT       0.0620
  33003 WAT        27.1590   16.0940   13.0910 O      33003 WAT       0.0659
  33004 WAT        27.1590   16.0940   13.3410 O      33004 WAT       0.0601
  33005 WAT        27.1590   16.0940   13.5910 O      33005 WAT       0.0458
  33006 WAT        27.1590   16.3440   12.3410 O      33006 WAT       0.0481
  33007 WAT        27.1590   16.3440   12.5910 O      33007 WAT       0.0546
  33008 WAT        27.1590   16.3440   12.8410 O      33008 WAT       0.0618
  33009 WAT        27.1590   16.3440   13.0910 O      33009 WAT       0.0649
  33010 WAT        27.1590   16.3440   13.3410 O      33010 WAT       0.0593
  33011 WAT        27.1590   16.3440   13.5910 O      33011 WAT       0.0460
  33012 WAT        27.1590   16.8440   18.3410 O      33012 WAT       0.0461
  33013 WAT        27.1590   16.8440   18.5910 O      33013 WAT       0.0477
  33014 WAT        27.1590   16.8440   28.3410 O      33014 WAT       0.0454
  33015 WAT        27.1590   17.0940    8.8410 O      33015 WAT       0.0473
  33016 WAT        27.1590   17.0940   18.3410 O      33016 WAT       0.0556
  33017 WAT        27.1590   17.0940   18.5910 O      33017 WAT       0.0586
  33018 WAT        27.1590   17.0940   18.8410 O      33018 WAT       0.0506
  33019 WAT        27.1590   17.0940   27.8410 O      33019 WAT       0.0468
  33020 WAT        27.1590   17.0940   28.0910 O      33020 WAT       0.0547
  33021 WAT        27.1590   17.0940   28.3410 O      33021 WAT       0.0581
  33022 WAT        27.1590   17.0940   28.5910 O      33022 WAT       0.0552
  33023 WAT        27.1590   17.0940   28.8410 O      33023 WAT       0.0466
  33024 WAT        27.1590   17.3440    8.3410 O      33024 WAT       0.0459
  33025 WAT        27.1590   17.3440    8.5910 O      33025 WAT       0.0591
  33026 WAT        27.1590   17.3440    8.8410 O      33026 WAT       0.0598
  33027 WAT        27.1590   17.3440    9.0910 O      33027 WAT       0.0476
  33028 WAT        27.1590   17.3440   18.0910 O      33028 WAT       0.0510
  33029 WAT        27.1590   17.3440   18.3410 O      33029 WAT       0.0686
  33030 WAT        27.1590   17.3440   18.5910 O      33030 WAT       0.0733
  33031 WAT        27.1590   17.3440   18.8410 O      33031 WAT       0.0640
  33032 WAT        27.1590   17.3440   19.0910 O      33032 WAT       0.0481
  33033 WAT        27.1590   17.3440   27.8410 O      33033 WAT       0.0522
  33034 WAT        27.1590   17.3440   28.0910 O      33034 WAT       0.0625
  33035 WAT        27.1590   17.3440   28.3410 O      33035 WAT       0.0684
  33036 WAT        27.1590   17.3440   28.5910 O      33036 WAT       0.0670
  33037 WAT        27.1590   17.3440   28.8410 O      33037 WAT       0.0582
  33038 WAT        27.1590   17.5940    8.3410 O      33038 WAT       0.0582
  33039 WAT        27.1590   17.5940    8.5910 O      33039 WAT       0.0696
  33040 WAT        27.1590   17.5940    8.8410 O      33040 WAT       0.0636
  33041 WAT        27.1590   17.5940   18.0910 O      33041 WAT       0.0589
  33042 WAT        27.1590   17.5940   18.3410 O      33042 WAT       0.0807
  33043 WAT        27.1590   17.5940   18.5910 O      33043 WAT       0.0881
  33044 WAT        27.1590   17.5940   18.8410 O      33044 WAT       0.0786
  33045 WAT        27.1590   17.5940   19.0910 O      33045 WAT       0.0600
  33046 WAT        27.1590   17.5940   27.8410 O      33046 WAT       0.0520
  33047 WAT        27.1590   17.5940   28.0910 O      33047 WAT       0.0640
  33048 WAT        27.1590   17.5940   28.3410 O      33048 WAT       0.0723
  33049 WAT        27.1590   17.5940   28.5910 O      33049 WAT       0.0737
  33050 WAT        27.1590   17.5940   28.8410 O      33050 WAT       0.0662
  33051 WAT        27.1590   17.5940   29.0910 O      33051 WAT       0.0513
  33052 WAT        27.1590   17.8440    8.3410 O      33052 WAT       0.0593
  33053 WAT        27.1590   17.8440    8.5910 O      33053 WAT       0.0663
  33054 WAT        27.1590   17.8440    8.8410 O      33054 WAT       0.0560
  33055 WAT        27.1590   17.8440   18.0910 O      33055 WAT       0.0599
  33056 WAT        27.1590   17.8440   18.3410 O      33056 WAT       0.0848
  33057 WAT        27.1590   17.8440   18.5910 O      33057 WAT       0.0961
  33058 WAT        27.1590   17.8440   18.8410 O      33058 WAT       0.0892
  33059 WAT        27.1590   17.8440   19.0910 O      33059 WAT       0.0708
  33060 WAT        27.1590   17.8440   19.3410 O      33060 WAT       0.0518
  33061 WAT        27.1590   17.8440   22.5910 O      33061 WAT       0.0485
  33062 WAT        27.1590   17.8440   22.8410 O      33062 WAT       0.0506
  33063 WAT        27.1590   17.8440   23.0910 O      33063 WAT       0.0500
  33064 WAT        27.1590   17.8440   23.3410 O      33064 WAT       0.0478
  33065 WAT        27.1590   17.8440   27.8410 O      33065 WAT       0.0470
  33066 WAT        27.1590   17.8440   28.0910 O      33066 WAT       0.0592
  33067 WAT        27.1590   17.8440   28.3410 O      33067 WAT       0.0691
  33068 WAT        27.1590   17.8440   28.5910 O      33068 WAT       0.0728
  33069 WAT        27.1590   17.8440   28.8410 O      33069 WAT       0.0676
  33070 WAT        27.1590   17.8440   29.0910 O      33070 WAT       0.0535
  33071 WAT        27.1590   18.0940    8.3410 O      33071 WAT       0.0478
  33072 WAT        27.1590   18.0940    8.5910 O      33072 WAT       0.0505
  33073 WAT        27.1590   18.0940   18.0910 O      33073 WAT       0.0508
  33074 WAT        27.1590   18.0940   18.3410 O      33074 WAT       0.0754
  33075 WAT        27.1590   18.0940   18.5910 O      33075 WAT       0.0901
  33076 WAT        27.1590   18.0940   18.8410 O      33076 WAT       0.0889
  33077 WAT        27.1590   18.0940   19.0910 O      33077 WAT       0.0756
  33078 WAT        27.1590   18.0940   19.3410 O      33078 WAT       0.0592
  33079 WAT        27.1590   18.0940   19.5910 O      33079 WAT       0.0462
  33080 WAT        27.1590   18.0940   22.0910 O      33080 WAT       0.0482
  33081 WAT        27.1590   18.0940   22.3410 O      33081 WAT       0.0568
  33082 WAT        27.1590   18.0940   22.5910 O      33082 WAT       0.0636
  33083 WAT        27.1590   18.0940   22.8410 O      33083 WAT       0.0657
  33084 WAT        27.1590   18.0940   23.0910 O      33084 WAT       0.0627
  33085 WAT        27.1590   18.0940   23.3410 O      33085 WAT       0.0565
  33086 WAT        27.1590   18.0940   23.5910 O      33086 WAT       0.0490
  33087 WAT        27.1590   18.0940   28.0910 O      33087 WAT       0.0507
  33088 WAT        27.1590   18.0940   28.3410 O      33088 WAT       0.0604
  33089 WAT        27.1590   18.0940   28.5910 O      33089 WAT       0.0656
  33090 WAT        27.1590   18.0940   28.8410 O      33090 WAT       0.0626
  33091 WAT        27.1590   18.0940   29.0910 O      33091 WAT       0.0508
  33092 WAT        27.1590   18.3440   18.3410 O      33092 WAT       0.0548
  33093 WAT        27.1590   18.3440   18.5910 O      33093 WAT       0.0702
  33094 WAT        27.1590   18.3440   18.8410 O      33094 WAT       0.0753
  33095 WAT        27.1590   18.3440   19.0910 O      33095 WAT       0.0705
  33096 WAT        27.1590   18.3440   19.3410 O      33096 WAT       0.0610
  33097 WAT        27.1590   18.3440   19.5910 O      33097 WAT       0.0518
  33098 WAT        27.1590   18.3440   22.0910 O      33098 WAT       0.0548
  33099 WAT        27.1590   18.3440   22.3410 O      33099 WAT       0.0662
  33100 WAT        27.1590   18.3440   22.5910 O      33100 WAT       0.0749
  33101 WAT        27.1590   18.3440   22.8410 O      33101 WAT       0.0766
  33102 WAT        27.1590   18.3440   23.0910 O      33102 WAT       0.0703
  33103 WAT        27.1590   18.3440   23.3410 O      33103 WAT       0.0593
  33104 WAT        27.1590   18.3440   23.5910 O      33104 WAT       0.0479
  33105 WAT        27.1590   18.3440   28.3410 O      33105 WAT       0.0490
  33106 WAT        27.1590   18.3440   28.5910 O      33106 WAT       0.0545
  33107 WAT        27.1590   18.3440   28.8410 O      33107 WAT       0.0536
  33108 WAT        27.1590   18.5940   18.5910 O      33108 WAT       0.0454
  33109 WAT        27.1590   18.5940   18.8410 O      33109 WAT       0.0542
  33110 WAT        27.1590   18.5940   19.0910 O      33110 WAT       0.0573
  33111 WAT        27.1590   18.5940   19.3410 O      33111 WAT       0.0561
  33112 WAT        27.1590   18.5940   19.5910 O      33112 WAT       0.0531
  33113 WAT        27.1590   18.5940   19.8410 O      33113 WAT       0.0489
  33114 WAT        27.1590   18.5940   22.0910 O      33114 WAT       0.0540
  33115 WAT        27.1590   18.5940   22.3410 O      33115 WAT       0.0670
  33116 WAT        27.1590   18.5940   22.5910 O      33116 WAT       0.0766
  33117 WAT        27.1590   18.5940   22.8410 O      33117 WAT       0.0774
  33118 WAT        27.1590   18.5940   23.0910 O      33118 WAT       0.0685
  33119 WAT        27.1590   18.5940   23.3410 O      33119 WAT       0.0545
  33120 WAT        27.1590   18.8440    6.3410 O      33120 WAT       0.0481
  33121 WAT        27.1590   18.8440    6.5910 O      33121 WAT       0.0575
  33122 WAT        27.1590   18.8440    6.8410 O      33122 WAT       0.0550
  33123 WAT        27.1590   18.8440   19.3410 O      33123 WAT       0.0469
  33124 WAT        27.1590   18.8440   19.5910 O      33124 WAT       0.0502
  33125 WAT        27.1590   18.8440   19.8410 O      33125 WAT       0.0506
  33126 WAT        27.1590   18.8440   20.0910 O      33126 WAT       0.0470
  33127 WAT        27.1590   18.8440   22.0910 O      33127 WAT       0.0455
  33128 WAT        27.1590   18.8440   22.3410 O      33128 WAT       0.0582
  33129 WAT        27.1590   18.8440   22.5910 O      33129 WAT       0.0671
  33130 WAT        27.1590   18.8440   22.8410 O      33130 WAT       0.0672
  33131 WAT        27.1590   18.8440   23.0910 O      33131 WAT       0.0579
  33132 WAT        27.1590   19.0940    6.0910 O      33132 WAT       0.0539
  33133 WAT        27.1590   19.0940    6.3410 O      33133 WAT       0.0761
  33134 WAT        27.1590   19.0940    6.5910 O      33134 WAT       0.0845
  33135 WAT        27.1590   19.0940    6.8410 O      33135 WAT       0.0735
  33136 WAT        27.1590   19.0940    7.0910 O      33136 WAT       0.0507
  33137 WAT        27.1590   19.0940   19.8410 O      33137 WAT       0.0487
  33138 WAT        27.1590   19.0940   20.0910 O      33138 WAT       0.0473
  33139 WAT        27.1590   19.0940   22.5910 O      33139 WAT       0.0516
  33140 WAT        27.1590   19.0940   22.8410 O      33140 WAT       0.0515
  33141 WAT        27.1590   19.0940   25.0910 O      33141 WAT       0.0455
  33142 WAT        27.1590   19.3440    6.0910 O      33142 WAT       0.0680
  33143 WAT        27.1590   19.3440    6.3410 O      33143 WAT       0.0901
  33144 WAT        27.1590   19.3440    6.5910 O      33144 WAT       0.0931
  33145 WAT        27.1590   19.3440    6.8410 O      33145 WAT       0.0745
  33146 WAT        27.1590   19.3440    7.0910 O      33146 WAT       0.0468
  33147 WAT        27.1590   19.3440   25.0910 O      33147 WAT       0.0496
  33148 WAT        27.1590   19.3440   25.3410 O      33148 WAT       0.0497
  33149 WAT        27.1590   19.5940    3.3410 O      33149 WAT       0.0514
  33150 WAT        27.1590   19.5940    3.5910 O      33150 WAT       0.0523
  33151 WAT        27.1590   19.5940    6.0910 O      33151 WAT       0.0595
  33152 WAT        27.1590   19.5940    6.3410 O      33152 WAT       0.0735
  33153 WAT        27.1590   19.5940    6.5910 O      33153 WAT       0.0707
  33154 WAT        27.1590   19.5940    6.8410 O      33154 WAT       0.0525
  33155 WAT        27.1590   19.5940   25.0910 O      33155 WAT       0.0538
  33156 WAT        27.1590   19.5940   25.3410 O      33156 WAT       0.0558
  33157 WAT        27.1590   19.5940   25.5910 O      33157 WAT       0.0457
  33158 WAT        27.1590   19.8440    3.0910 O      33158 WAT       0.0502
  33159 WAT        27.1590   19.8440    3.3410 O      33159 WAT       0.0551
  33160 WAT        27.1590   19.8440    3.5910 O      33160 WAT       0.0528
  33161 WAT        27.1590   19.8440   25.0910 O      33161 WAT       0.0576
  33162 WAT        27.1590   19.8440   25.3410 O      33162 WAT       0.0615
  33163 WAT        27.1590   19.8440   25.5910 O      33163 WAT       0.0518
  33164 WAT        27.1590   20.0940    3.0910 O      33164 WAT       0.0473
  33165 WAT        27.1590   20.0940    3.3410 O      33165 WAT       0.0469
  33166 WAT        27.1590   20.0940   25.0910 O      33166 WAT       0.0601
  33167 WAT        27.1590   20.0940   25.3410 O      33167 WAT       0.0656
  33168 WAT        27.1590   20.0940   25.5910 O      33168 WAT       0.0568
  33169 WAT        27.1590   20.3440   25.0910 O      33169 WAT       0.0593
  33170 WAT        27.1590   20.3440   25.3410 O      33170 WAT       0.0659
  33171 WAT        27.1590   20.3440   25.5910 O      33171 WAT       0.0591
  33172 WAT        27.1590   20.5940   25.0910 O      33172 WAT       0.0538
  33173 WAT        27.1590   20.5940   25.3410 O      33173 WAT       0.0610
  33174 WAT        27.1590   20.5940   25.5910 O      33174 WAT       0.0575
  33175 WAT        27.1590   20.5940   25.8410 O      33175 WAT       0.0462
  33176 WAT        27.1590   20.8440   25.0910 O      33176 WAT       0.0454
  33177 WAT        27.1590   20.8440   25.3410 O      33177 WAT       0.0520
  33178 WAT        27.1590   20.8440   25.5910 O      33178 WAT       0.0515
  33179 WAT        27.1590   22.0940   23.8410 O      33179 WAT       0.0461
  33180 WAT        27.1590   22.0940   24.0910 O      33180 WAT       0.0517
  33181 WAT        27.1590   22.0940   24.3410 O      33181 WAT       0.0520
  33182 WAT        27.1590   22.0940   24.5910 O      33182 WAT       0.0472
  33183 WAT        27.1590   22.3440   23.8410 O      33183 WAT       0.0537
  33184 WAT        27.1590   22.3440   24.0910 O      33184 WAT       0.0598
  33185 WAT        27.1590   22.3440   24.3410 O      33185 WAT       0.0590
  33186 WAT        27.1590   22.3440   24.5910 O      33186 WAT       0.0523
  33187 WAT        27.1590   22.5940   23.5910 O      33187 WAT       0.0462
  33188 WAT        27.1590   22.5940   23.8410 O      33188 WAT       0.0578
  33189 WAT        27.1590   22.5940   24.0910 O      33189 WAT       0.0643
  33190 WAT        27.1590   22.5940   24.3410 O      33190 WAT       0.0632
  33191 WAT        27.1590   22.5940   24.5910 O      33191 WAT       0.0555
  33192 WAT        27.1590   22.8440   23.5910 O      33192 WAT       0.0452
  33193 WAT        27.1590   22.8440   23.8410 O      33193 WAT       0.0567
  33194 WAT        27.1590   22.8440   24.0910 O      33194 WAT       0.0638
  33195 WAT        27.1590   22.8440   24.3410 O      33195 WAT       0.0634
  33196 WAT        27.1590   22.8440   24.5910 O      33196 WAT       0.0560
  33197 WAT        27.1590   23.0940   23.8410 O      33197 WAT       0.0512
  33198 WAT        27.1590   23.0940   24.0910 O      33198 WAT       0.0586
  33199 WAT        27.1590   23.0940   24.3410 O      33199 WAT       0.0597
  33200 WAT        27.1590   23.0940   24.5910 O      33200 WAT       0.0540
  33201 WAT        27.1590   23.3440   24.0910 O      33201 WAT       0.0502
  33202 WAT        27.1590   23.3440   24.3410 O      33202 WAT       0.0524
  33203 WAT        27.1590   23.3440   24.5910 O      33203 WAT       0.0487
  33204 WAT        27.1590   24.3440   18.0910 O      33204 WAT       0.0465
  33205 WAT        27.1590   24.3440   18.3410 O      33205 WAT       0.0532
  33206 WAT        27.1590   24.3440   18.5910 O      33206 WAT       0.0498
  33207 WAT        27.1590   24.5940    2.5910 O      33207 WAT       0.0519
  33208 WAT        27.1590   24.5940   17.8410 O      33208 WAT       0.0525
  33209 WAT        27.1590   24.5940   18.0910 O      33209 WAT       0.0741
  33210 WAT        27.1590   24.5940   18.3410 O      33210 WAT       0.0827
  33211 WAT        27.1590   24.5940   18.5910 O      33211 WAT       0.0752
  33212 WAT        27.1590   24.5940   18.8410 O      33212 WAT       0.0591
  33213 WAT        27.1590   24.8440    2.5910 O      33213 WAT       0.0605
  33214 WAT        27.1590   24.8440   17.8410 O      33214 WAT       0.0669
  33215 WAT        27.1590   24.8440   18.0910 O      33215 WAT       0.0921
  33216 WAT        27.1590   24.8440   18.3410 O      33216 WAT       0.1021
  33217 WAT        27.1590   24.8440   18.5910 O      33217 WAT       0.0926
  33218 WAT        27.1590   24.8440   18.8410 O      33218 WAT       0.0719
  33219 WAT        27.1590   24.8440   19.0910 O      33219 WAT       0.0513
  33220 WAT        27.1590   25.0940    2.5910 O      33220 WAT       0.0539
  33221 WAT        27.1590   25.0940   17.8410 O      33221 WAT       0.0678
  33222 WAT        27.1590   25.0940   18.0910 O      33222 WAT       0.0918
  33223 WAT        27.1590   25.0940   18.3410 O      33223 WAT       0.1024
  33224 WAT        27.1590   25.0940   18.5910 O      33224 WAT       0.0944
  33225 WAT        27.1590   25.0940   18.8410 O      33225 WAT       0.0741
  33226 WAT        27.1590   25.0940   19.0910 O      33226 WAT       0.0526
  33227 WAT        27.1590   25.3440   17.8410 O      33227 WAT       0.0573
  33228 WAT        27.1590   25.3440   18.0910 O      33228 WAT       0.0764
  33229 WAT        27.1590   25.3440   18.3410 O      33229 WAT       0.0865
  33230 WAT        27.1590   25.3440   18.5910 O      33230 WAT       0.0821
  33231 WAT        27.1590   25.3440   18.8410 O      33231 WAT       0.0661
  33232 WAT        27.1590   25.3440   19.0910 O      33232 WAT       0.0474
  33233 WAT        27.1590   25.5940   18.0910 O      33233 WAT       0.0564
  33234 WAT        27.1590   25.5940   18.3410 O      33234 WAT       0.0653
  33235 WAT        27.1590   25.5940   18.5910 O      33235 WAT       0.0641
  33236 WAT        27.1590   25.5940   18.8410 O      33236 WAT       0.0534
  33237 WAT        27.1590   25.8440   18.3410 O      33237 WAT       0.0467
  33238 WAT        27.1590   25.8440   18.5910 O      33238 WAT       0.0475
  33239 WAT        27.1590   26.3440   16.3410 O      33239 WAT       0.0461
  33240 WAT        27.1590   28.0940   19.3410 O      33240 WAT       0.0483
  33241 WAT        27.1590   28.0940   19.5910 O      33241 WAT       0.0487
  33242 WAT        27.1590   28.0940   19.8410 O      33242 WAT       0.0454
  33243 WAT        27.1590   28.3440   19.0910 O      33243 WAT       0.0502
  33244 WAT        27.1590   28.3440   19.3410 O      33244 WAT       0.0550
  33245 WAT        27.1590   28.3440   19.5910 O      33245 WAT       0.0555
  33246 WAT        27.1590   28.3440   19.8410 O      33246 WAT       0.0515
  33247 WAT        27.1590   28.5940   15.0910 O      33247 WAT       0.0468
  33248 WAT        27.1590   28.5940   15.3410 O      33248 WAT       0.0529
  33249 WAT        27.1590   28.5940   15.5910 O      33249 WAT       0.0505
  33250 WAT        27.1590   28.5940   19.0910 O      33250 WAT       0.0512
  33251 WAT        27.1590   28.5940   19.3410 O      33251 WAT       0.0570
  33252 WAT        27.1590   28.5940   19.5910 O      33252 WAT       0.0583
  33253 WAT        27.1590   28.5940   19.8410 O      33253 WAT       0.0545
  33254 WAT        27.1590   28.5940   20.0910 O      33254 WAT       0.0469
  33255 WAT        27.1590   28.8440   15.0910 O      33255 WAT       0.0483
  33256 WAT        27.1590   28.8440   15.3410 O      33256 WAT       0.0556
  33257 WAT        27.1590   28.8440   15.5910 O      33257 WAT       0.0524
  33258 WAT        27.1590   28.8440   19.0910 O      33258 WAT       0.0470
  33259 WAT        27.1590   28.8440   19.3410 O      33259 WAT       0.0534
  33260 WAT        27.1590   28.8440   19.5910 O      33260 WAT       0.0560
  33261 WAT        27.1590   28.8440   19.8410 O      33261 WAT       0.0533
  33262 WAT        27.1590   28.8440   20.0910 O      33262 WAT       0.0467
  33263 WAT        27.1590   29.0940   15.3410 O      33263 WAT       0.0520
  33264 WAT        27.1590   29.0940   15.5910 O      33264 WAT       0.0482
  33265 WAT        27.1590   29.0940   19.3410 O      33265 WAT       0.0457
  33266 WAT        27.1590   29.0940   19.5910 O      33266 WAT       0.0488
  33267 WAT        27.1590   29.0940   19.8410 O      33267 WAT       0.0478
  33268 WAT        27.1590   30.3440   22.0910 O      33268 WAT       0.0465
  33269 WAT        27.1590   30.3440   22.3410 O      33269 WAT       0.0473
  33270 WAT        27.1590   30.3440   22.5910 O      33270 WAT       0.0460
  33271 WAT        27.1590   30.5940   21.8410 O      33271 WAT       0.0482
  33272 WAT        27.1590   30.5940   22.0910 O      33272 WAT       0.0508
  33273 WAT        27.1590   30.5940   22.3410 O      33273 WAT       0.0512
  33274 WAT        27.1590   30.5940   22.5910 O      33274 WAT       0.0494
  33275 WAT        27.1590   30.5940   22.8410 O      33275 WAT       0.0462
  33276 WAT        27.1590   30.8440   21.8410 O      33276 WAT       0.0492
  33277 WAT        27.1590   30.8440   22.0910 O      33277 WAT       0.0516
  33278 WAT        27.1590   30.8440   22.3410 O      33278 WAT       0.0516
  33279 WAT        27.1590   30.8440   22.5910 O      33279 WAT       0.0496
  33280 WAT        27.1590   30.8440   22.8410 O      33280 WAT       0.0464
  33281 WAT        27.1590   31.0940   21.8410 O      33281 WAT       0.0471
  33282 WAT        27.1590   31.0940   22.0910 O      33282 WAT       0.0495
  33283 WAT        27.1590   31.0940   22.3410 O      33283 WAT       0.0493
  33284 WAT        27.1590   31.0940   22.5910 O      33284 WAT       0.0471
  33285 WAT        27.1590   31.3440   22.0910 O      33285 WAT       0.0457
  33286 WAT        27.1590   31.3440   22.3410 O      33286 WAT       0.0454
  33287 WAT        27.4090   11.8440   23.0910 O      33287 WAT       0.0452
  33288 WAT        27.4090   11.8440   23.3410 O      33288 WAT       0.0469
  33289 WAT        27.4090   11.8440   23.5910 O      33289 WAT       0.0455
  33290 WAT        27.4090   12.0940   23.0910 O      33290 WAT       0.0468
  33291 WAT        27.4090   12.0940   23.3410 O      33291 WAT       0.0486
  33292 WAT        27.4090   12.0940   23.5910 O      33292 WAT       0.0468
  33293 WAT        27.4090   12.3440   23.0910 O      33293 WAT       0.0473
  33294 WAT        27.4090   12.3440   23.3410 O      33294 WAT       0.0492
  33295 WAT        27.4090   12.3440   23.5910 O      33295 WAT       0.0474
  33296 WAT        27.4090   12.5940   23.0910 O      33296 WAT       0.0471
  33297 WAT        27.4090   12.5940   23.3410 O      33297 WAT       0.0486
  33298 WAT        27.4090   12.5940   23.5910 O      33298 WAT       0.0469
  33299 WAT        27.4090   12.5940   25.5910 O      33299 WAT       0.0454
  33300 WAT        27.4090   12.8440   23.0910 O      33300 WAT       0.0466
  33301 WAT        27.4090   12.8440   23.3410 O      33301 WAT       0.0474
  33302 WAT        27.4090   12.8440   23.5910 O      33302 WAT       0.0456
  33303 WAT        27.4090   13.0940   23.0910 O      33303 WAT       0.0462
  33304 WAT        27.4090   13.0940   23.3410 O      33304 WAT       0.0463
  33305 WAT        27.4090   13.3440   23.0910 O      33305 WAT       0.0454
  33306 WAT        27.4090   15.8440   12.5910 O      33306 WAT       0.0459
  33307 WAT        27.4090   15.8440   12.8410 O      33307 WAT       0.0599
  33308 WAT        27.4090   15.8440   13.0910 O      33308 WAT       0.0706
  33309 WAT        27.4090   15.8440   13.3410 O      33309 WAT       0.0717
  33310 WAT        27.4090   15.8440   13.5910 O      33310 WAT       0.0612
  33311 WAT        27.4090   16.0940   12.3410 O      33311 WAT       0.0481
  33312 WAT        27.4090   16.0940   12.5910 O      33312 WAT       0.0656
  33313 WAT        27.4090   16.0940   12.8410 O      33313 WAT       0.0873
  33314 WAT        27.4090   16.0940   13.0910 O      33314 WAT       0.1043
  33315 WAT        27.4090   16.0940   13.3410 O      33315 WAT       0.1072
  33316 WAT        27.4090   16.0940   13.5910 O      33316 WAT       0.0928
  33317 WAT        27.4090   16.0940   13.8410 O      33317 WAT       0.0677
  33318 WAT        27.4090   16.3440   12.3410 O      33318 WAT       0.0559
  33319 WAT        27.4090   16.3440   12.5910 O      33319 WAT       0.0737
  33320 WAT        27.4090   16.3440   12.8410 O      33320 WAT       0.0960
  33321 WAT        27.4090   16.3440   13.0910 O      33321 WAT       0.1142
  33322 WAT        27.4090   16.3440   13.3410 O      33322 WAT       0.1184
  33323 WAT        27.4090   16.3440   13.5910 O      33323 WAT       0.1048
  33324 WAT        27.4090   16.3440   13.8410 O      33324 WAT       0.0795
  33325 WAT        27.4090   16.3440   14.0910 O      33325 WAT       0.0522
  33326 WAT        27.4090   16.5940   12.3410 O      33326 WAT       0.0490
  33327 WAT        27.4090   16.5940   12.5910 O      33327 WAT       0.0607
  33328 WAT        27.4090   16.5940   12.8410 O      33328 WAT       0.0757
  33329 WAT        27.4090   16.5940   13.0910 O      33329 WAT       0.0887
  33330 WAT        27.4090   16.5940   13.3410 O      33330 WAT       0.0926
  33331 WAT        27.4090   16.5940   13.5910 O      33331 WAT       0.0844
  33332 WAT        27.4090   16.5940   13.8410 O      33332 WAT       0.0672
  33333 WAT        27.4090   16.5940   14.0910 O      33333 WAT       0.0469
  33334 WAT        27.4090   16.8440   13.0910 O      33334 WAT       0.0478
  33335 WAT        27.4090   16.8440   13.3410 O      33335 WAT       0.0503
  33336 WAT        27.4090   16.8440   13.5910 O      33336 WAT       0.0475
  33337 WAT        27.4090   16.8440   18.3410 O      33337 WAT       0.0464
  33338 WAT        27.4090   17.0940    8.8410 O      33338 WAT       0.0476
  33339 WAT        27.4090   17.0940    9.0910 O      33339 WAT       0.0501
  33340 WAT        27.4090   17.0940   18.0910 O      33340 WAT       0.0514
  33341 WAT        27.4090   17.0940   18.3410 O      33341 WAT       0.0612
  33342 WAT        27.4090   17.0940   18.5910 O      33342 WAT       0.0598
  33343 WAT        27.4090   17.0940   18.8410 O      33343 WAT       0.0491
  33344 WAT        27.4090   17.0940   28.0910 O      33344 WAT       0.0465
  33345 WAT        27.4090   17.0940   28.3410 O      33345 WAT       0.0469
  33346 WAT        27.4090   17.3440    8.5910 O      33346 WAT       0.0563
  33347 WAT        27.4090   17.3440    8.8410 O      33347 WAT       0.0650
  33348 WAT        27.4090   17.3440    9.0910 O      33348 WAT       0.0610
  33349 WAT        27.4090   17.3440    9.3410 O      33349 WAT       0.0477
  33350 WAT        27.4090   17.3440   17.8410 O      33350 WAT       0.0452
  33351 WAT        27.4090   17.3440   18.0910 O      33351 WAT       0.0669
  33352 WAT        27.4090   17.3440   18.3410 O      33352 WAT       0.0806
  33353 WAT        27.4090   17.3440   18.5910 O      33353 WAT       0.0794
  33354 WAT        27.4090   17.3440   18.8410 O      33354 WAT       0.0654
  33355 WAT        27.4090   17.3440   19.0910 O      33355 WAT       0.0472
  33356 WAT        27.4090   17.3440   27.8410 O      33356 WAT       0.0479
  33357 WAT        27.4090   17.3440   28.0910 O      33357 WAT       0.0537
  33358 WAT        27.4090   17.3440   28.3410 O      33358 WAT       0.0553
  33359 WAT        27.4090   17.3440   28.5910 O      33359 WAT       0.0518
  33360 WAT        27.4090   17.5940    8.3410 O      33360 WAT       0.0538
  33361 WAT        27.4090   17.5940    8.5910 O      33361 WAT       0.0713
  33362 WAT        27.4090   17.5940    8.8410 O      33362 WAT       0.0753
  33363 WAT        27.4090   17.5940    9.0910 O      33363 WAT       0.0637
  33364 WAT        27.4090   17.5940   17.8410 O      33364 WAT       0.0520
  33365 WAT        27.4090   17.5940   18.0910 O      33365 WAT       0.0793
  33366 WAT        27.4090   17.5940   18.3410 O      33366 WAT       0.0978
  33367 WAT        27.4090   17.5940   18.5910 O      33367 WAT       0.0987
  33368 WAT        27.4090   17.5940   18.8410 O      33368 WAT       0.0832
  33369 WAT        27.4090   17.5940   19.0910 O      33369 WAT       0.0609
  33370 WAT        27.4090   17.5940   27.8410 O      33370 WAT       0.0494
  33371 WAT        27.4090   17.5940   28.0910 O      33371 WAT       0.0568
  33372 WAT        27.4090   17.5940   28.3410 O      33372 WAT       0.0604
  33373 WAT        27.4090   17.5940   28.5910 O      33373 WAT       0.0583
  33374 WAT        27.4090   17.5940   28.8410 O      33374 WAT       0.0505
  33375 WAT        27.4090   17.8440    8.3410 O      33375 WAT       0.0600
  33376 WAT        27.4090   17.8440    8.5910 O      33376 WAT       0.0748
  33377 WAT        27.4090   17.8440    8.8410 O      33377 WAT       0.0736
  33378 WAT        27.4090   17.8440    9.0910 O      33378 WAT       0.0574
  33379 WAT        27.4090   17.8440   17.8410 O      33379 WAT       0.0499
  33380 WAT        27.4090   17.8440   18.0910 O      33380 WAT       0.0799
  33381 WAT        27.4090   17.8440   18.3410 O      33381 WAT       0.1028
  33382 WAT        27.4090   17.8440   18.5910 O      33382 WAT       0.1085
  33383 WAT        27.4090   17.8440   18.8410 O      33383 WAT       0.0958
  33384 WAT        27.4090   17.8440   19.0910 O      33384 WAT       0.0734
  33385 WAT        27.4090   17.8440   19.3410 O      33385 WAT       0.0519
  33386 WAT        27.4090   17.8440   22.5910 O      33386 WAT       0.0466
  33387 WAT        27.4090   17.8440   22.8410 O      33387 WAT       0.0486
  33388 WAT        27.4090   17.8440   23.0910 O      33388 WAT       0.0483
  33389 WAT        27.4090   17.8440   23.3410 O      33389 WAT       0.0458
  33390 WAT        27.4090   17.8440   27.8410 O      33390 WAT       0.0466
  33391 WAT        27.4090   17.8440   28.0910 O      33391 WAT       0.0552
  33392 WAT        27.4090   17.8440   28.3410 O      33392 WAT       0.0607
  33393 WAT        27.4090   17.8440   28.5910 O      33393 WAT       0.0605
  33394 WAT        27.4090   17.8440   28.8410 O      33394 WAT       0.0536
  33395 WAT        27.4090   18.0940    8.3410 O      33395 WAT       0.0549
  33396 WAT        27.4090   18.0940    8.5910 O      33396 WAT       0.0647
  33397 WAT        27.4090   18.0940    8.8410 O      33397 WAT       0.0603
  33398 WAT        27.4090   18.0940   18.0910 O      33398 WAT       0.0650
  33399 WAT        27.4090   18.0940   18.3410 O      33399 WAT       0.0889
  33400 WAT        27.4090   18.0940   18.5910 O      33400 WAT       0.1001
  33401 WAT        27.4090   18.0940   18.8410 O      33401 WAT       0.0951
  33402 WAT        27.4090   18.0940   19.0910 O      33402 WAT       0.0791
  33403 WAT        27.4090   18.0940   19.3410 O      33403 WAT       0.0608
  33404 WAT        27.4090   18.0940   19.5910 O      33404 WAT       0.0456
  33405 WAT        27.4090   18.0940   22.0910 O      33405 WAT       0.0467
  33406 WAT        27.4090   18.0940   22.3410 O      33406 WAT       0.0547
  33407 WAT        27.4090   18.0940   22.5910 O      33407 WAT       0.0609
  33408 WAT        27.4090   18.0940   22.8410 O      33408 WAT       0.0633
  33409 WAT        27.4090   18.0940   23.0910 O      33409 WAT       0.0612
  33410 WAT        27.4090   18.0940   23.3410 O      33410 WAT       0.0557
  33411 WAT        27.4090   18.0940   23.5910 O      33411 WAT       0.0483
  33412 WAT        27.4090   18.0940   28.0910 O      33412 WAT       0.0501
  33413 WAT        27.4090   18.0940   28.3410 O      33413 WAT       0.0570
  33414 WAT        27.4090   18.0940   28.5910 O      33414 WAT       0.0587
  33415 WAT        27.4090   18.0940   28.8410 O      33415 WAT       0.0533
  33416 WAT        27.4090   18.3440    8.5910 O      33416 WAT       0.0465
  33417 WAT        27.4090   18.3440   18.3410 O      33417 WAT       0.0612
  33418 WAT        27.4090   18.3440   18.5910 O      33418 WAT       0.0751
  33419 WAT        27.4090   18.3440   18.8410 O      33419 WAT       0.0790
  33420 WAT        27.4090   18.3440   19.0910 O      33420 WAT       0.0737
  33421 WAT        27.4090   18.3440   19.3410 O      33421 WAT       0.0636
  33422 WAT        27.4090   18.3440   19.5910 O      33422 WAT       0.0526
  33423 WAT        27.4090   18.3440   22.0910 O      33423 WAT       0.0532
  33424 WAT        27.4090   18.3440   22.3410 O      33424 WAT       0.0643
  33425 WAT        27.4090   18.3440   22.5910 O      33425 WAT       0.0728
  33426 WAT        27.4090   18.3440   22.8410 O      33426 WAT       0.0755
  33427 WAT        27.4090   18.3440   23.0910 O      33427 WAT       0.0710
  33428 WAT        27.4090   18.3440   23.3410 O      33428 WAT       0.0614
  33429 WAT        27.4090   18.3440   23.5910 O      33429 WAT       0.0504
  33430 WAT        27.4090   18.3440   28.3410 O      33430 WAT       0.0501
  33431 WAT        27.4090   18.3440   28.5910 O      33431 WAT       0.0533
  33432 WAT        27.4090   18.3440   28.8410 O      33432 WAT       0.0499
  33433 WAT        27.4090   18.5940   18.5910 O      33433 WAT       0.0458
  33434 WAT        27.4090   18.5940   18.8410 O      33434 WAT       0.0547
  33435 WAT        27.4090   18.5940   19.0910 O      33435 WAT       0.0588
  33436 WAT        27.4090   18.5940   19.3410 O      33436 WAT       0.0583
  33437 WAT        27.4090   18.5940   19.5910 O      33437 WAT       0.0543
  33438 WAT        27.4090   18.5940   19.8410 O      33438 WAT       0.0481
  33439 WAT        27.4090   18.5940   22.0910 O      33439 WAT       0.0540
  33440 WAT        27.4090   18.5940   22.3410 O      33440 WAT       0.0673
  33441 WAT        27.4090   18.5940   22.5910 O      33441 WAT       0.0776
  33442 WAT        27.4090   18.5940   22.8410 O      33442 WAT       0.0800
  33443 WAT        27.4090   18.5940   23.0910 O      33443 WAT       0.0730
  33444 WAT        27.4090   18.5940   23.3410 O      33444 WAT       0.0603
  33445 WAT        27.4090   18.5940   23.5910 O      33445 WAT       0.0472
  33446 WAT        27.4090   18.5940   28.5910 O      33446 WAT       0.0456
  33447 WAT        27.4090   18.8440    6.5910 O      33447 WAT       0.0557
  33448 WAT        27.4090   18.8440    6.8410 O      33448 WAT       0.0582
  33449 WAT        27.4090   18.8440    7.0910 O      33449 WAT       0.0510
  33450 WAT        27.4090   18.8440   19.3410 O      33450 WAT       0.0472
  33451 WAT        27.4090   18.8440   19.5910 O      33451 WAT       0.0503
  33452 WAT        27.4090   18.8440   19.8410 O      33452 WAT       0.0496
  33453 WAT        27.4090   18.8440   20.0910 O      33453 WAT       0.0451
  33454 WAT        27.4090   18.8440   22.0910 O      33454 WAT       0.0485
  33455 WAT        27.4090   18.8440   22.3410 O      33455 WAT       0.0623
  33456 WAT        27.4090   18.8440   22.5910 O      33456 WAT       0.0729
  33457 WAT        27.4090   18.8440   22.8410 O      33457 WAT       0.0748
  33458 WAT        27.4090   18.8440   23.0910 O      33458 WAT       0.0669
  33459 WAT        27.4090   18.8440   23.3410 O      33459 WAT       0.0535
  33460 WAT        27.4090   18.8440   24.8410 O      33460 WAT       0.0463
  33461 WAT        27.4090   18.8440   25.0910 O      33461 WAT       0.0531
  33462 WAT        27.4090   18.8440   25.3410 O      33462 WAT       0.0525
  33463 WAT        27.4090   19.0940    6.3410 O      33463 WAT       0.0608
  33464 WAT        27.4090   19.0940    6.5910 O      33464 WAT       0.0732
  33465 WAT        27.4090   19.0940    6.8410 O      33465 WAT       0.0715
  33466 WAT        27.4090   19.0940    7.0910 O      33466 WAT       0.0575
  33467 WAT        27.4090   19.0940   19.8410 O      33467 WAT       0.0468
  33468 WAT        27.4090   19.0940   20.0910 O      33468 WAT       0.0459
  33469 WAT        27.4090   19.0940   22.3410 O      33469 WAT       0.0519
  33470 WAT        27.4090   19.0940   22.5910 O      33470 WAT       0.0618
  33471 WAT        27.4090   19.0940   22.8410 O      33471 WAT       0.0636
  33472 WAT        27.4090   19.0940   23.0910 O      33472 WAT       0.0565
  33473 WAT        27.4090   19.0940   24.8410 O      33473 WAT       0.0510
  33474 WAT        27.4090   19.0940   25.0910 O      33474 WAT       0.0620
  33475 WAT        27.4090   19.0940   25.3410 O      33475 WAT       0.0631
  33476 WAT        27.4090   19.0940   25.5910 O      33476 WAT       0.0535
  33477 WAT        27.4090   19.3440    6.0910 O      33477 WAT       0.0461
  33478 WAT        27.4090   19.3440    6.3410 O      33478 WAT       0.0657
  33479 WAT        27.4090   19.3440    6.5910 O      33479 WAT       0.0753
  33480 WAT        27.4090   19.3440    6.8410 O      33480 WAT       0.0691
  33481 WAT        27.4090   19.3440    7.0910 O      33481 WAT       0.0515
  33482 WAT        27.4090   19.3440   22.5910 O      33482 WAT       0.0491
  33483 WAT        27.4090   19.3440   22.8410 O      33483 WAT       0.0515
  33484 WAT        27.4090   19.3440   23.0910 O      33484 WAT       0.0463
  33485 WAT        27.4090   19.3440   24.8410 O      33485 WAT       0.0550
  33486 WAT        27.4090   19.3440   25.0910 O      33486 WAT       0.0706
  33487 WAT        27.4090   19.3440   25.3410 O      33487 WAT       0.0740
  33488 WAT        27.4090   19.3440   25.5910 O      33488 WAT       0.0634
  33489 WAT        27.4090   19.3440   25.8410 O      33489 WAT       0.0462
  33490 WAT        27.4090   19.5940    6.3410 O      33490 WAT       0.0501
  33491 WAT        27.4090   19.5940    6.5910 O      33491 WAT       0.0546
  33492 WAT        27.4090   19.5940    6.8410 O      33492 WAT       0.0474
  33493 WAT        27.4090   19.5940   24.8410 O      33493 WAT       0.0582
  33494 WAT        27.4090   19.5940   25.0910 O      33494 WAT       0.0782
  33495 WAT        27.4090   19.5940   25.3410 O      33495 WAT       0.0845
  33496 WAT        27.4090   19.5940   25.5910 O      33496 WAT       0.0740
  33497 WAT        27.4090   19.5940   25.8410 O      33497 WAT       0.0545
  33498 WAT        27.4090   19.8440    3.0910 O      33498 WAT       0.0451
  33499 WAT        27.4090   19.8440    3.3410 O      33499 WAT       0.0457
  33500 WAT        27.4090   19.8440   24.8410 O      33500 WAT       0.0606
  33501 WAT        27.4090   19.8440   25.0910 O      33501 WAT       0.0838
  33502 WAT        27.4090   19.8440   25.3410 O      33502 WAT       0.0930
  33503 WAT        27.4090   19.8440   25.5910 O      33503 WAT       0.0833
  33504 WAT        27.4090   19.8440   25.8410 O      33504 WAT       0.0627
  33505 WAT        27.4090   20.0940    2.8410 O      33505 WAT       0.0461
  33506 WAT        27.4090   20.0940   24.8410 O      33506 WAT       0.0614
  33507 WAT        27.4090   20.0940   25.0910 O      33507 WAT       0.0860
  33508 WAT        27.4090   20.0940   25.3410 O      33508 WAT       0.0970
  33509 WAT        27.4090   20.0940   25.5910 O      33509 WAT       0.0890
  33510 WAT        27.4090   20.0940   25.8410 O      33510 WAT       0.0689
  33511 WAT        27.4090   20.0940   26.0910 O      33511 WAT       0.0475
  33512 WAT        27.4090   20.3440    2.5910 O      33512 WAT       0.0455
  33513 WAT        27.4090   20.3440   24.8410 O      33513 WAT       0.0591
  33514 WAT        27.4090   20.3440   25.0910 O      33514 WAT       0.0823
  33515 WAT        27.4090   20.3440   25.3410 O      33515 WAT       0.0941
  33516 WAT        27.4090   20.3440   25.5910 O      33516 WAT       0.0888
  33517 WAT        27.4090   20.3440   25.8410 O      33517 WAT       0.0719
  33518 WAT        27.4090   20.3440   26.0910 O      33518 WAT       0.0521
  33519 WAT        27.4090   20.5940   24.8410 O      33519 WAT       0.0526
  33520 WAT        27.4090   20.5940   25.0910 O      33520 WAT       0.0720
  33521 WAT        27.4090   20.5940   25.3410 O      33521 WAT       0.0836
  33522 WAT        27.4090   20.5940   25.5910 O      33522 WAT       0.0823
  33523 WAT        27.4090   20.5940   25.8410 O      33523 WAT       0.0705
  33524 WAT        27.4090   20.5940   26.0910 O      33524 WAT       0.0543
  33525 WAT        27.4090   20.8440   25.0910 O      33525 WAT       0.0584
  33526 WAT        27.4090   20.8440   25.3410 O      33526 WAT       0.0686
  33527 WAT        27.4090   20.8440   25.5910 O      33527 WAT       0.0707
  33528 WAT        27.4090   20.8440   25.8410 O      33528 WAT       0.0642
  33529 WAT        27.4090   20.8440   26.0910 O      33529 WAT       0.0523
  33530 WAT        27.4090   21.0940   25.0910 O      33530 WAT       0.0465
  33531 WAT        27.4090   21.0940   25.3410 O      33531 WAT       0.0536
  33532 WAT        27.4090   21.0940   25.5910 O      33532 WAT       0.0566
  33533 WAT        27.4090   21.0940   25.8410 O      33533 WAT       0.0537
  33534 WAT        27.4090   21.0940   26.0910 O      33534 WAT       0.0460
  33535 WAT        27.4090   21.8440   24.3410 O      33535 WAT       0.0456
  33536 WAT        27.4090   22.0940   23.8410 O      33536 WAT       0.0462
  33537 WAT        27.4090   22.0940   24.0910 O      33537 WAT       0.0502
  33538 WAT        27.4090   22.0940   24.3410 O      33538 WAT       0.0511
  33539 WAT        27.4090   22.0940   24.5910 O      33539 WAT       0.0485
  33540 WAT        27.4090   22.3440   23.8410 O      33540 WAT       0.0503
  33541 WAT        27.4090   22.3440   24.0910 O      33541 WAT       0.0545
  33542 WAT        27.4090   22.3440   24.3410 O      33542 WAT       0.0548
  33543 WAT        27.4090   22.3440   24.5910 O      33543 WAT       0.0512
  33544 WAT        27.4090   22.5940   21.5910 O      33544 WAT       0.0455
  33545 WAT        27.4090   22.5940   23.8410 O      33545 WAT       0.0510
  33546 WAT        27.4090   22.5940   24.0910 O      33546 WAT       0.0554
  33547 WAT        27.4090   22.5940   24.3410 O      33547 WAT       0.0556
  33548 WAT        27.4090   22.5940   24.5910 O      33548 WAT       0.0514
  33549 WAT        27.4090   22.8440   23.8410 O      33549 WAT       0.0475
  33550 WAT        27.4090   22.8440   24.0910 O      33550 WAT       0.0520
  33551 WAT        27.4090   22.8440   24.3410 O      33551 WAT       0.0525
  33552 WAT        27.4090   22.8440   24.5910 O      33552 WAT       0.0485
  33553 WAT        27.4090   23.0940   24.3410 O      33553 WAT       0.0458
  33554 WAT        27.4090   24.5940   18.0910 O      33554 WAT       0.0475
  33555 WAT        27.4090   24.5940   18.3410 O      33555 WAT       0.0566
  33556 WAT        27.4090   24.5940   18.5910 O      33556 WAT       0.0560
  33557 WAT        27.4090   24.5940   18.8410 O      33557 WAT       0.0492
  33558 WAT        27.4090   24.8440   18.0910 O      33558 WAT       0.0626
  33559 WAT        27.4090   24.8440   18.3410 O      33559 WAT       0.0729
  33560 WAT        27.4090   24.8440   18.5910 O      33560 WAT       0.0705
  33561 WAT        27.4090   24.8440   18.8410 O      33561 WAT       0.0599
  33562 WAT        27.4090   24.8440   19.0910 O      33562 WAT       0.0476
  33563 WAT        27.4090   25.0940   17.8410 O      33563 WAT       0.0480
  33564 WAT        27.4090   25.0940   18.0910 O      33564 WAT       0.0664
  33565 WAT        27.4090   25.0940   18.3410 O      33565 WAT       0.0762
  33566 WAT        27.4090   25.0940   18.5910 O      33566 WAT       0.0733
  33567 WAT        27.4090   25.0940   18.8410 O      33567 WAT       0.0615
  33568 WAT        27.4090   25.0940   19.0910 O      33568 WAT       0.0476
  33569 WAT        27.4090   25.3440   18.0910 O      33569 WAT       0.0595
  33570 WAT        27.4090   25.3440   18.3410 O      33570 WAT       0.0676
  33571 WAT        27.4090   25.3440   18.5910 O      33571 WAT       0.0652
  33572 WAT        27.4090   25.3440   18.8410 O      33572 WAT       0.0547
  33573 WAT        27.4090   25.5940   18.0910 O      33573 WAT       0.0478
  33574 WAT        27.4090   25.5940   18.3410 O      33574 WAT       0.0537
  33575 WAT        27.4090   25.5940   18.5910 O      33575 WAT       0.0523
  33576 WAT        27.4090   28.0940   14.8410 O      33576 WAT       0.0476
  33577 WAT        27.4090   28.0940   15.0910 O      33577 WAT       0.0473
  33578 WAT        27.4090   28.3440   14.8410 O      33578 WAT       0.0493
  33579 WAT        27.4090   28.3440   15.0910 O      33579 WAT       0.0541
  33580 WAT        27.4090   28.3440   15.3410 O      33580 WAT       0.0532
  33581 WAT        27.4090   28.3440   15.5910 O      33581 WAT       0.0493
  33582 WAT        27.4090   28.3440   19.0910 O      33582 WAT       0.0518
  33583 WAT        27.4090   28.3440   19.3410 O      33583 WAT       0.0544
  33584 WAT        27.4090   28.3440   19.5910 O      33584 WAT       0.0524
  33585 WAT        27.4090   28.3440   19.8410 O      33585 WAT       0.0465
  33586 WAT        27.4090   28.5940   14.8410 O      33586 WAT       0.0463
  33587 WAT        27.4090   28.5940   15.0910 O      33587 WAT       0.0580
  33588 WAT        27.4090   28.5940   15.3410 O      33588 WAT       0.0622
  33589 WAT        27.4090   28.5940   15.5910 O      33589 WAT       0.0592
  33590 WAT        27.4090   28.5940   15.8410 O      33590 WAT       0.0520
  33591 WAT        27.4090   28.5940   18.8410 O      33591 WAT       0.0486
  33592 WAT        27.4090   28.5940   19.0910 O      33592 WAT       0.0564
  33593 WAT        27.4090   28.5940   19.3410 O      33593 WAT       0.0602
  33594 WAT        27.4090   28.5940   19.5910 O      33594 WAT       0.0588
  33595 WAT        27.4090   28.5940   19.8410 O      33595 WAT       0.0525
  33596 WAT        27.4090   28.8440   15.0910 O      33596 WAT       0.0581
  33597 WAT        27.4090   28.8440   15.3410 O      33597 WAT       0.0660
  33598 WAT        27.4090   28.8440   15.5910 O      33598 WAT       0.0633
  33599 WAT        27.4090   28.8440   15.8410 O      33599 WAT       0.0544
  33600 WAT        27.4090   28.8440   18.8410 O      33600 WAT       0.0477
  33601 WAT        27.4090   28.8440   19.0910 O      33601 WAT       0.0556
  33602 WAT        27.4090   28.8440   19.3410 O      33602 WAT       0.0604
  33603 WAT        27.4090   28.8440   19.5910 O      33603 WAT       0.0601
  33604 WAT        27.4090   28.8440   19.8410 O      33604 WAT       0.0546
  33605 WAT        27.4090   28.8440   20.0910 O      33605 WAT       0.0463
  33606 WAT        27.4090   29.0940   15.0910 O      33606 WAT       0.0540
  33607 WAT        27.4090   29.0940   15.3410 O      33607 WAT       0.0637
  33608 WAT        27.4090   29.0940   15.5910 O      33608 WAT       0.0609
  33609 WAT        27.4090   29.0940   15.8410 O      33609 WAT       0.0509
  33610 WAT        27.4090   29.0940   19.0910 O      33610 WAT       0.0506
  33611 WAT        27.4090   29.0940   19.3410 O      33611 WAT       0.0554
  33612 WAT        27.4090   29.0940   19.5910 O      33612 WAT       0.0560
  33613 WAT        27.4090   29.0940   19.8410 O      33613 WAT       0.0521
  33614 WAT        27.4090   29.0940   20.0910 O      33614 WAT       0.0453
  33615 WAT        27.4090   29.3440   15.0910 O      33615 WAT       0.0464
  33616 WAT        27.4090   29.3440   15.3410 O      33616 WAT       0.0568
  33617 WAT        27.4090   29.3440   15.5910 O      33617 WAT       0.0544
  33618 WAT        27.4090   29.3440   19.3410 O      33618 WAT       0.0475
  33619 WAT        27.4090   29.3440   19.5910 O      33619 WAT       0.0487
  33620 WAT        27.4090   29.3440   19.8410 O      33620 WAT       0.0466
  33621 WAT        27.4090   29.5940   15.3410 O      33621 WAT       0.0473
  33622 WAT        27.4090   29.5940   15.5910 O      33622 WAT       0.0461
  33623 WAT        27.4090   30.3440   21.8410 O      33623 WAT       0.0455
  33624 WAT        27.4090   30.3440   22.0910 O      33624 WAT       0.0464
  33625 WAT        27.4090   30.3440   22.3410 O      33625 WAT       0.0454
  33626 WAT        27.4090   30.5940   21.5910 O      33626 WAT       0.0466
  33627 WAT        27.4090   30.5940   21.8410 O      33627 WAT       0.0492
  33628 WAT        27.4090   30.5940   22.0910 O      33628 WAT       0.0494
  33629 WAT        27.4090   30.5940   22.3410 O      33629 WAT       0.0474
  33630 WAT        27.4090   30.8440   21.5910 O      33630 WAT       0.0477
  33631 WAT        27.4090   30.8440   21.8410 O      33631 WAT       0.0501
  33632 WAT        27.4090   30.8440   22.0910 O      33632 WAT       0.0495
  33633 WAT        27.4090   30.8440   22.3410 O      33633 WAT       0.0467
  33634 WAT        27.4090   31.0940   21.5910 O      33634 WAT       0.0463
  33635 WAT        27.4090   31.0940   21.8410 O      33635 WAT       0.0486
  33636 WAT        27.4090   31.0940   22.0910 O      33636 WAT       0.0476
  33637 WAT        27.4090   31.3440   21.8410 O      33637 WAT       0.0457
  33638 WAT        27.6590   15.8440   12.8410 O      33638 WAT       0.0616
  33639 WAT        27.6590   15.8440   13.0910 O      33639 WAT       0.0789
  33640 WAT        27.6590   15.8440   13.3410 O      33640 WAT       0.0879
  33641 WAT        27.6590   15.8440   13.5910 O      33641 WAT       0.0831
  33642 WAT        27.6590   15.8440   13.8410 O      33642 WAT       0.0664
  33643 WAT        27.6590   15.8440   14.0910 O      33643 WAT       0.0456
  33644 WAT        27.6590   16.0940   12.5910 O      33644 WAT       0.0667
  33645 WAT        27.6590   16.0940   12.8410 O      33645 WAT       0.0972
  33646 WAT        27.6590   16.0940   13.0910 O      33646 WAT       0.1276
  33647 WAT        27.6590   16.0940   13.3410 O      33647 WAT       0.1446
  33648 WAT        27.6590   16.0940   13.5910 O      33648 WAT       0.1394
  33649 WAT        27.6590   16.0940   13.8410 O      33649 WAT       0.1147
  33650 WAT        27.6590   16.0940   14.0910 O      33650 WAT       0.0813
  33651 WAT        27.6590   16.0940   14.3410 O      33651 WAT       0.0508
  33652 WAT        27.6590   16.3440   12.3410 O      33652 WAT       0.0549
  33653 WAT        27.6590   16.3440   12.5910 O      33653 WAT       0.0809
  33654 WAT        27.6590   16.3440   12.8410 O      33654 WAT       0.1172
  33655 WAT        27.6590   16.3440   13.0910 O      33655 WAT       0.1542
  33656 WAT        27.6590   16.3440   13.3410 O      33656 WAT       0.1772
  33657 WAT        27.6590   16.3440   13.5910 O      33657 WAT       0.1759
  33658 WAT        27.6590   16.3440   13.8410 O      33658 WAT       0.1506
  33659 WAT        27.6590   16.3440   14.0910 O      33659 WAT       0.1119
  33660 WAT        27.6590   16.3440   14.3410 O      33660 WAT       0.0730
  33661 WAT        27.6590   16.5940   12.3410 O      33661 WAT       0.0523
  33662 WAT        27.6590   16.5940   12.5910 O      33662 WAT       0.0730
  33663 WAT        27.6590   16.5940   12.8410 O      33663 WAT       0.1024
  33664 WAT        27.6590   16.5940   13.0910 O      33664 WAT       0.1338
  33665 WAT        27.6590   16.5940   13.3410 O      33665 WAT       0.1563
  33666 WAT        27.6590   16.5940   13.5910 O      33666 WAT       0.1606
  33667 WAT        27.6590   16.5940   13.8410 O      33667 WAT       0.1443
  33668 WAT        27.6590   16.5940   14.0910 O      33668 WAT       0.1135
  33669 WAT        27.6590   16.5940   14.3410 O      33669 WAT       0.0781
  33670 WAT        27.6590   16.5940   14.5910 O      33670 WAT       0.0475
  33671 WAT        27.6590   16.8440   12.5910 O      33671 WAT       0.0475
  33672 WAT        27.6590   16.8440   12.8410 O      33672 WAT       0.0635
  33673 WAT        27.6590   16.8440   13.0910 O      33673 WAT       0.0820
  33674 WAT        27.6590   16.8440   13.3410 O      33674 WAT       0.0976
  33675 WAT        27.6590   16.8440   13.5910 O      33675 WAT       0.1045
  33676 WAT        27.6590   16.8440   13.8410 O      33676 WAT       0.0991
  33677 WAT        27.6590   16.8440   14.0910 O      33677 WAT       0.0827
  33678 WAT        27.6590   16.8440   14.3410 O      33678 WAT       0.0602
  33679 WAT        27.6590   17.0940    9.0910 O      33679 WAT       0.0539
  33680 WAT        27.6590   17.0940    9.3410 O      33680 WAT       0.0560
  33681 WAT        27.6590   17.0940    9.5910 O      33681 WAT       0.0504
  33682 WAT        27.6590   17.0940   13.5910 O      33682 WAT       0.0478
  33683 WAT        27.6590   17.0940   13.8410 O      33683 WAT       0.0480
  33684 WAT        27.6590   17.0940   18.0910 O      33684 WAT       0.0527
  33685 WAT        27.6590   17.0940   18.3410 O      33685 WAT       0.0566
  33686 WAT        27.6590   17.0940   18.5910 O      33686 WAT       0.0520
  33687 WAT        27.6590   17.3440    8.5910 O      33687 WAT       0.0495
  33688 WAT        27.6590   17.3440    8.8410 O      33688 WAT       0.0652
  33689 WAT        27.6590   17.3440    9.0910 O      33689 WAT       0.0724
  33690 WAT        27.6590   17.3440    9.3410 O      33690 WAT       0.0683
  33691 WAT        27.6590   17.3440    9.5910 O      33691 WAT       0.0558
  33692 WAT        27.6590   17.3440   17.8410 O      33692 WAT       0.0540
  33693 WAT        27.6590   17.3440   18.0910 O      33693 WAT       0.0705
  33694 WAT        27.6590   17.3440   18.3410 O      33694 WAT       0.0774
  33695 WAT        27.6590   17.3440   18.5910 O      33695 WAT       0.0716
  33696 WAT        27.6590   17.3440   18.8410 O      33696 WAT       0.0573
  33697 WAT        27.6590   17.5940    8.3410 O      33697 WAT       0.0453
  33698 WAT        27.6590   17.5940    8.5910 O      33698 WAT       0.0663
  33699 WAT        27.6590   17.5940    8.8410 O      33699 WAT       0.0816
  33700 WAT        27.6590   17.5940    9.0910 O      33700 WAT       0.0833
  33701 WAT        27.6590   17.5940    9.3410 O      33701 WAT       0.0715
  33702 WAT        27.6590   17.5940    9.5910 O      33702 WAT       0.0531
  33703 WAT        27.6590   17.5940   17.8410 O      33703 WAT       0.0612
  33704 WAT        27.6590   17.5940   18.0910 O      33704 WAT       0.0842
  33705 WAT        27.6590   17.5940   18.3410 O      33705 WAT       0.0955
  33706 WAT        27.6590   17.5940   18.5910 O      33706 WAT       0.0910
  33707 WAT        27.6590   17.5940   18.8410 O      33707 WAT       0.0744
  33708 WAT        27.6590   17.5940   19.0910 O      33708 WAT       0.0541
  33709 WAT        27.6590   17.8440    8.3410 O      33709 WAT       0.0545
  33710 WAT        27.6590   17.8440    8.5910 O      33710 WAT       0.0757
  33711 WAT        27.6590   17.8440    8.8410 O      33711 WAT       0.0872
  33712 WAT        27.6590   17.8440    9.0910 O      33712 WAT       0.0824
  33713 WAT        27.6590   17.8440    9.3410 O      33713 WAT       0.0649
  33714 WAT        27.6590   17.8440   17.8410 O      33714 WAT       0.0570
  33715 WAT        27.6590   17.8440   18.0910 O      33715 WAT       0.0833
  33716 WAT        27.6590   17.8440   18.3410 O      33716 WAT       0.0998
  33717 WAT        27.6590   17.8440   18.5910 O      33717 WAT       0.1002
  33718 WAT        27.6590   17.8440   18.8410 O      33718 WAT       0.0862
  33719 WAT        27.6590   17.8440   19.0910 O      33719 WAT       0.0659
  33720 WAT        27.6590   17.8440   19.3410 O      33720 WAT       0.0466
  33721 WAT        27.6590   17.8440   28.3410 O      33721 WAT       0.0455
  33722 WAT        27.6590   18.0940    8.3410 O      33722 WAT       0.0557
  33723 WAT        27.6590   18.0940    8.5910 O      33723 WAT       0.0731
  33724 WAT        27.6590   18.0940    8.8410 O      33724 WAT       0.0793
  33725 WAT        27.6590   18.0940    9.0910 O      33725 WAT       0.0699
  33726 WAT        27.6590   18.0940    9.3410 O      33726 WAT       0.0508
  33727 WAT        27.6590   18.0940   18.0910 O      33727 WAT       0.0653
  33728 WAT        27.6590   18.0940   18.3410 O      33728 WAT       0.0840
  33729 WAT        27.6590   18.0940   18.5910 O      33729 WAT       0.0908
  33730 WAT        27.6590   18.0940   18.8410 O      33730 WAT       0.0849
  33731 WAT        27.6590   18.0940   19.0910 O      33731 WAT       0.0710
  33732 WAT        27.6590   18.0940   19.3410 O      33732 WAT       0.0550
  33733 WAT        27.6590   18.0940   22.3410 O      33733 WAT       0.0463
  33734 WAT        27.6590   18.0940   22.5910 O      33734 WAT       0.0509
  33735 WAT        27.6590   18.0940   22.8410 O      33735 WAT       0.0528
  33736 WAT        27.6590   18.0940   23.0910 O      33736 WAT       0.0516
  33737 WAT        27.6590   18.0940   23.3410 O      33737 WAT       0.0475
  33738 WAT        27.6590   18.0940   28.3410 O      33738 WAT       0.0459
  33739 WAT        27.6590   18.0940   28.5910 O      33739 WAT       0.0450
  33740 WAT        27.6590   18.3440    8.3410 O      33740 WAT       0.0483
  33741 WAT        27.6590   18.3440    8.5910 O      33741 WAT       0.0596
  33742 WAT        27.6590   18.3440    8.8410 O      33742 WAT       0.0610
  33743 WAT        27.6590   18.3440    9.0910 O      33743 WAT       0.0504
  33744 WAT        27.6590   18.3440   18.3410 O      33744 WAT       0.0550
  33745 WAT        27.6590   18.3440   18.5910 O      33745 WAT       0.0657
  33746 WAT        27.6590   18.3440   18.8410 O      33746 WAT       0.0689
  33747 WAT        27.6590   18.3440   19.0910 O      33747 WAT       0.0654
  33748 WAT        27.6590   18.3440   19.3410 O      33748 WAT       0.0576
  33749 WAT        27.6590   18.3440   19.5910 O      33749 WAT       0.0478
  33750 WAT        27.6590   18.3440   22.3410 O      33750 WAT       0.0532
  33751 WAT        27.6590   18.3440   22.5910 O      33751 WAT       0.0598
  33752 WAT        27.6590   18.3440   22.8410 O      33752 WAT       0.0623
  33753 WAT        27.6590   18.3440   23.0910 O      33753 WAT       0.0598
  33754 WAT        27.6590   18.3440   23.3410 O      33754 WAT       0.0532
  33755 WAT        27.6590   18.5940    6.8410 O      33755 WAT       0.0499
  33756 WAT        27.6590   18.5940    7.0910 O      33756 WAT       0.0495
  33757 WAT        27.6590   18.5940   18.8410 O      33757 WAT       0.0459
  33758 WAT        27.6590   18.5940   19.0910 O      33758 WAT       0.0512
  33759 WAT        27.6590   18.5940   19.3410 O      33759 WAT       0.0525
  33760 WAT        27.6590   18.5940   19.5910 O      33760 WAT       0.0496
  33761 WAT        27.6590   18.5940   22.0910 O      33761 WAT       0.0457
  33762 WAT        27.6590   18.5940   22.3410 O      33762 WAT       0.0563
  33763 WAT        27.6590   18.5940   22.5910 O      33763 WAT       0.0647
  33764 WAT        27.6590   18.5940   22.8410 O      33764 WAT       0.0675
  33765 WAT        27.6590   18.5940   23.0910 O      33765 WAT       0.0634
  33766 WAT        27.6590   18.5940   23.3410 O      33766 WAT       0.0547
  33767 WAT        27.6590   18.8440    6.5910 O      33767 WAT       0.0566
  33768 WAT        27.6590   18.8440    6.8410 O      33768 WAT       0.0622
  33769 WAT        27.6590   18.8440    7.0910 O      33769 WAT       0.0595
  33770 WAT        27.6590   18.8440    7.3410 O      33770 WAT       0.0495
  33771 WAT        27.6590   18.8440   19.5910 O      33771 WAT       0.0455
  33772 WAT        27.6590   18.8440   22.3410 O      33772 WAT       0.0549
  33773 WAT        27.6590   18.8440   22.5910 O      33773 WAT       0.0643
  33774 WAT        27.6590   18.8440   22.8410 O      33774 WAT       0.0671
  33775 WAT        27.6590   18.8440   23.0910 O      33775 WAT       0.0622
  33776 WAT        27.6590   18.8440   23.3410 O      33776 WAT       0.0525
  33777 WAT        27.6590   18.8440   25.0910 O      33777 WAT       0.0533
  33778 WAT        27.6590   18.8440   25.3410 O      33778 WAT       0.0562
  33779 WAT        27.6590   18.8440   25.5910 O      33779 WAT       0.0518
  33780 WAT        27.6590   19.0940    6.3410 O      33780 WAT       0.0528
  33781 WAT        27.6590   19.0940    6.5910 O      33781 WAT       0.0662
  33782 WAT        27.6590   19.0940    6.8410 O      33782 WAT       0.0705
  33783 WAT        27.6590   19.0940    7.0910 O      33783 WAT       0.0641
  33784 WAT        27.6590   19.0940    7.3410 O      33784 WAT       0.0505
  33785 WAT        27.6590   19.0940   22.3410 O      33785 WAT       0.0498
  33786 WAT        27.6590   19.0940   22.5910 O      33786 WAT       0.0595
  33787 WAT        27.6590   19.0940   22.8410 O      33787 WAT       0.0626
  33788 WAT        27.6590   19.0940   23.0910 O      33788 WAT       0.0582
  33789 WAT        27.6590   19.0940   23.3410 O      33789 WAT       0.0490
  33790 WAT        27.6590   19.0940   24.8410 O      33790 WAT       0.0511
  33791 WAT        27.6590   19.0940   25.0910 O      33791 WAT       0.0636
  33792 WAT        27.6590   19.0940   25.3410 O      33792 WAT       0.0687
  33793 WAT        27.6590   19.0940   25.5910 O      33793 WAT       0.0636
  33794 WAT        27.6590   19.0940   25.8410 O      33794 WAT       0.0514
  33795 WAT        27.6590   19.3440    6.3410 O      33795 WAT       0.0507
  33796 WAT        27.6590   19.3440    6.5910 O      33796 WAT       0.0626
  33797 WAT        27.6590   19.3440    6.8410 O      33797 WAT       0.0644
  33798 WAT        27.6590   19.3440    7.0910 O      33798 WAT       0.0560
  33799 WAT        27.6590   19.3440   22.5910 O      33799 WAT       0.0530
  33800 WAT        27.6590   19.3440   22.8410 O      33800 WAT       0.0570
  33801 WAT        27.6590   19.3440   23.0910 O      33801 WAT       0.0537
  33802 WAT        27.6590   19.3440   23.3410 O      33802 WAT       0.0456
  33803 WAT        27.6590   19.3440   24.8410 O      33803 WAT       0.0561
  33804 WAT        27.6590   19.3440   25.0910 O      33804 WAT       0.0732
  33805 WAT        27.6590   19.3440   25.3410 O      33805 WAT       0.0814
  33806 WAT        27.6590   19.3440   25.5910 O      33806 WAT       0.0763
  33807 WAT        27.6590   19.3440   25.8410 O      33807 WAT       0.0619
  33808 WAT        27.6590   19.3440   26.0910 O      33808 WAT       0.0458
  33809 WAT        27.6590   19.5940   22.5910 O      33809 WAT       0.0475
  33810 WAT        27.6590   19.5940   22.8410 O      33810 WAT       0.0523
  33811 WAT        27.6590   19.5940   23.0910 O      33811 WAT       0.0503
  33812 WAT        27.6590   19.5940   24.8410 O      33812 WAT       0.0598
  33813 WAT        27.6590   19.5940   25.0910 O      33813 WAT       0.0814
  33814 WAT        27.6590   19.5940   25.3410 O      33814 WAT       0.0930
  33815 WAT        27.6590   19.5940   25.5910 O      33815 WAT       0.0887
  33816 WAT        27.6590   19.5940   25.8410 O      33816 WAT       0.0729
  33817 WAT        27.6590   19.5940   26.0910 O      33817 WAT       0.0541
  33818 WAT        27.6590   19.8440   22.8410 O      33818 WAT       0.0489
  33819 WAT        27.6590   19.8440   23.0910 O      33819 WAT       0.0481
  33820 WAT        27.6590   19.8440   24.8410 O      33820 WAT       0.0619
  33821 WAT        27.6590   19.8440   25.0910 O      33821 WAT       0.0865
  33822 WAT        27.6590   19.8440   25.3410 O      33822 WAT       0.1009
  33823 WAT        27.6590   19.8440   25.5910 O      33823 WAT       0.0980
  33824 WAT        27.6590   19.8440   25.8410 O      33824 WAT       0.0819
  33825 WAT        27.6590   19.8440   26.0910 O      33825 WAT       0.0617
  33826 WAT        27.6590   20.0940    2.8410 O      33826 WAT       0.0459
  33827 WAT        27.6590   20.0940   22.8410 O      33827 WAT       0.0461
  33828 WAT        27.6590   20.0940   23.0910 O      33828 WAT       0.0466
  33829 WAT        27.6590   20.0940   24.8410 O      33829 WAT       0.0617
  33830 WAT        27.6590   20.0940   25.0910 O      33830 WAT       0.0869
  33831 WAT        27.6590   20.0940   25.3410 O      33831 WAT       0.1026
  33832 WAT        27.6590   20.0940   25.5910 O      33832 WAT       0.1013
  33833 WAT        27.6590   20.0940   25.8410 O      33833 WAT       0.0866
  33834 WAT        27.6590   20.0940   26.0910 O      33834 WAT       0.0669
  33835 WAT        27.6590   20.0940   26.3410 O      33835 WAT       0.0483
  33836 WAT        27.6590   20.3440    2.5910 O      33836 WAT       0.0478
  33837 WAT        27.6590   20.3440   23.0910 O      33837 WAT       0.0453
  33838 WAT        27.6590   20.3440   24.8410 O      33838 WAT       0.0578
  33839 WAT        27.6590   20.3440   25.0910 O      33839 WAT       0.0807
  33840 WAT        27.6590   20.3440   25.3410 O      33840 WAT       0.0961
  33841 WAT        27.6590   20.3440   25.5910 O      33841 WAT       0.0970
  33842 WAT        27.6590   20.3440   25.8410 O      33842 WAT       0.0859
  33843 WAT        27.6590   20.3440   26.0910 O      33843 WAT       0.0689
  33844 WAT        27.6590   20.3440   26.3410 O      33844 WAT       0.0514
  33845 WAT        27.6590   20.5940   24.8410 O      33845 WAT       0.0502
  33846 WAT        27.6590   20.5940   25.0910 O      33846 WAT       0.0684
  33847 WAT        27.6590   20.5940   25.3410 O      33847 WAT       0.0823
  33848 WAT        27.6590   20.5940   25.5910 O      33848 WAT       0.0861
  33849 WAT        27.6590   20.5940   25.8410 O      33849 WAT       0.0797
  33850 WAT        27.6590   20.5940   26.0910 O      33850 WAT       0.0668
  33851 WAT        27.6590   20.5940   26.3410 O      33851 WAT       0.0519
  33852 WAT        27.6590   20.8440   25.0910 O      33852 WAT       0.0540
  33853 WAT        27.6590   20.8440   25.3410 O      33853 WAT       0.0655
  33854 WAT        27.6590   20.8440   25.5910 O      33854 WAT       0.0711
  33855 WAT        27.6590   20.8440   25.8410 O      33855 WAT       0.0688
  33856 WAT        27.6590   20.8440   26.0910 O      33856 WAT       0.0602
  33857 WAT        27.6590   20.8440   26.3410 O      33857 WAT       0.0488
  33858 WAT        27.6590   21.0940   25.3410 O      33858 WAT       0.0499
  33859 WAT        27.6590   21.0940   25.5910 O      33859 WAT       0.0552
  33860 WAT        27.6590   21.0940   25.8410 O      33860 WAT       0.0552
  33861 WAT        27.6590   21.0940   26.0910 O      33861 WAT       0.0500
  33862 WAT        27.6590   21.3440   20.8410 O      33862 WAT       0.0478
  33863 WAT        27.6590   21.3440   21.0910 O      33863 WAT       0.0489
  33864 WAT        27.6590   21.3440   21.3410 O      33864 WAT       0.0460
  33865 WAT        27.6590   21.5940   20.8410 O      33865 WAT       0.0492
  33866 WAT        27.6590   21.5940   21.0910 O      33866 WAT       0.0528
  33867 WAT        27.6590   21.5940   21.3410 O      33867 WAT       0.0518
  33868 WAT        27.6590   21.5940   21.5910 O      33868 WAT       0.0466
  33869 WAT        27.6590   21.8440   20.8410 O      33869 WAT       0.0483
  33870 WAT        27.6590   21.8440   21.0910 O      33870 WAT       0.0543
  33871 WAT        27.6590   21.8440   21.3410 O      33871 WAT       0.0557
  33872 WAT        27.6590   21.8440   21.5910 O      33872 WAT       0.0512
  33873 WAT        27.6590   22.0940   20.8410 O      33873 WAT       0.0452
  33874 WAT        27.6590   22.0940   21.0910 O      33874 WAT       0.0528
  33875 WAT        27.6590   22.0940   21.3410 O      33875 WAT       0.0561
  33876 WAT        27.6590   22.0940   21.5910 O      33876 WAT       0.0532
  33877 WAT        27.6590   22.0940   21.8410 O      33877 WAT       0.0455
  33878 WAT        27.6590   22.3440   21.0910 O      33878 WAT       0.0489
  33879 WAT        27.6590   22.3440   21.3410 O      33879 WAT       0.0537
  33880 WAT        27.6590   22.3440   21.5910 O      33880 WAT       0.0529
  33881 WAT        27.6590   22.3440   21.8410 O      33881 WAT       0.0471
  33882 WAT        27.6590   22.5940   21.3410 O      33882 WAT       0.0496
  33883 WAT        27.6590   22.5940   21.5910 O      33883 WAT       0.0508
  33884 WAT        27.6590   22.5940   21.8410 O      33884 WAT       0.0474
  33885 WAT        27.6590   22.8440   21.5910 O      33885 WAT       0.0466
  33886 WAT        27.6590   22.8440   21.8410 O      33886 WAT       0.0455
  33887 WAT        27.6590   24.8440   18.3410 O      33887 WAT       0.0461
  33888 WAT        27.6590   24.8440   18.5910 O      33888 WAT       0.0492
  33889 WAT        27.6590   24.8440   18.8410 O      33889 WAT       0.0468
  33890 WAT        27.6590   25.0940   18.3410 O      33890 WAT       0.0515
  33891 WAT        27.6590   25.0940   18.5910 O      33891 WAT       0.0530
  33892 WAT        27.6590   25.0940   18.8410 O      33892 WAT       0.0485
  33893 WAT        27.6590   25.3440   18.3410 O      33893 WAT       0.0492
  33894 WAT        27.6590   25.3440   18.5910 O      33894 WAT       0.0493
  33895 WAT        27.6590   27.5940   14.8410 O      33895 WAT       0.0492
  33896 WAT        27.6590   27.5940   15.0910 O      33896 WAT       0.0478
  33897 WAT        27.6590   27.8440   14.5910 O      33897 WAT       0.0544
  33898 WAT        27.6590   27.8440   14.8410 O      33898 WAT       0.0658
  33899 WAT        27.6590   27.8440   15.0910 O      33899 WAT       0.0588
  33900 WAT        27.6590   28.0940   14.5910 O      33900 WAT       0.0635
  33901 WAT        27.6590   28.0940   14.8410 O      33901 WAT       0.0723
  33902 WAT        27.6590   28.0940   15.0910 O      33902 WAT       0.0637
  33903 WAT        27.6590   28.0940   15.3410 O      33903 WAT       0.0491
  33904 WAT        27.6590   28.3440   14.5910 O      33904 WAT       0.0581
  33905 WAT        27.6590   28.3440   14.8410 O      33905 WAT       0.0669
  33906 WAT        27.6590   28.3440   15.0910 O      33906 WAT       0.0635
  33907 WAT        27.6590   28.3440   15.3410 O      33907 WAT       0.0558
  33908 WAT        27.6590   28.3440   15.5910 O      33908 WAT       0.0493
  33909 WAT        27.6590   28.3440   19.0910 O      33909 WAT       0.0454
  33910 WAT        27.6590   28.3440   19.3410 O      33910 WAT       0.0459
  33911 WAT        27.6590   28.5940   14.8410 O      33911 WAT       0.0556
  33912 WAT        27.6590   28.5940   15.0910 O      33912 WAT       0.0615
  33913 WAT        27.6590   28.5940   15.3410 O      33913 WAT       0.0618
  33914 WAT        27.6590   28.5940   15.5910 O      33914 WAT       0.0589
  33915 WAT        27.6590   28.5940   15.8410 O      33915 WAT       0.0538
  33916 WAT        27.6590   28.5940   16.0910 O      33916 WAT       0.0461
  33917 WAT        27.6590   28.5940   18.8410 O      33917 WAT       0.0470
  33918 WAT        27.6590   28.5940   19.0910 O      33918 WAT       0.0523
  33919 WAT        27.6590   28.5940   19.3410 O      33919 WAT       0.0532
  33920 WAT        27.6590   28.5940   19.5910 O      33920 WAT       0.0495
  33921 WAT        27.6590   28.8440   15.0910 O      33921 WAT       0.0590
  33922 WAT        27.6590   28.8440   15.3410 O      33922 WAT       0.0657
  33923 WAT        27.6590   28.8440   15.5910 O      33923 WAT       0.0644
  33924 WAT        27.6590   28.8440   15.8410 O      33924 WAT       0.0580
  33925 WAT        27.6590   28.8440   16.0910 O      33925 WAT       0.0486
  33926 WAT        27.6590   28.8440   18.8410 O      33926 WAT       0.0494
  33927 WAT        27.6590   28.8440   19.0910 O      33927 WAT       0.0550
  33928 WAT        27.6590   28.8440   19.3410 O      33928 WAT       0.0566
  33929 WAT        27.6590   28.8440   19.5910 O      33929 WAT       0.0535
  33930 WAT        27.6590   28.8440   19.8410 O      33930 WAT       0.0468
  33931 WAT        27.6590   29.0940   15.0910 O      33931 WAT       0.0556
  33932 WAT        27.6590   29.0940   15.3410 O      33932 WAT       0.0663
  33933 WAT        27.6590   29.0940   15.5910 O      33933 WAT       0.0653
  33934 WAT        27.6590   29.0940   15.8410 O      33934 WAT       0.0570
  33935 WAT        27.6590   29.0940   16.0910 O      33935 WAT       0.0459
  33936 WAT        27.6590   29.0940   18.8410 O      33936 WAT       0.0486
  33937 WAT        27.6590   29.0940   19.0910 O      33937 WAT       0.0538
  33938 WAT        27.6590   29.0940   19.3410 O      33938 WAT       0.0556
  33939 WAT        27.6590   29.0940   19.5910 O      33939 WAT       0.0532
  33940 WAT        27.6590   29.0940   19.8410 O      33940 WAT       0.0474
  33941 WAT        27.6590   29.3440   15.0910 O      33941 WAT       0.0504
  33942 WAT        27.6590   29.3440   15.3410 O      33942 WAT       0.0633
  33943 WAT        27.6590   29.3440   15.5910 O      33943 WAT       0.0628
  33944 WAT        27.6590   29.3440   15.8410 O      33944 WAT       0.0528
  33945 WAT        27.6590   29.3440   18.8410 O      33945 WAT       0.0454
  33946 WAT        27.6590   29.3440   19.0910 O      33946 WAT       0.0496
  33947 WAT        27.6590   29.3440   19.3410 O      33947 WAT       0.0513
  33948 WAT        27.6590   29.3440   19.5910 O      33948 WAT       0.0497
  33949 WAT        27.6590   29.3440   19.8410 O      33949 WAT       0.0452
  33950 WAT        27.6590   29.5940   15.3410 O      33950 WAT       0.0569
  33951 WAT        27.6590   29.5940   15.5910 O      33951 WAT       0.0573
  33952 WAT        27.6590   29.5940   15.8410 O      33952 WAT       0.0472
  33953 WAT        27.6590   29.5940   19.3410 O      33953 WAT       0.0457
  33954 WAT        27.6590   29.8440   15.3410 O      33954 WAT       0.0480
  33955 WAT        27.6590   29.8440   15.5910 O      33955 WAT       0.0498
  33956 WAT        27.9090   15.3440   16.3410 O      33956 WAT       0.0470
  33957 WAT        27.9090   15.3440   16.5910 O      33957 WAT       0.0457
  33958 WAT        27.9090   15.5940   16.0910 O      33958 WAT       0.0451
  33959 WAT        27.9090   15.5940   16.3410 O      33959 WAT       0.0500
  33960 WAT        27.9090   15.5940   16.5910 O      33960 WAT       0.0499
  33961 WAT        27.9090   15.5940   16.8410 O      33961 WAT       0.0455
  33962 WAT        27.9090   15.8440   12.8410 O      33962 WAT       0.0499
  33963 WAT        27.9090   15.8440   13.0910 O      33963 WAT       0.0678
  33964 WAT        27.9090   15.8440   13.3410 O      33964 WAT       0.0813
  33965 WAT        27.9090   15.8440   13.5910 O      33965 WAT       0.0839
  33966 WAT        27.9090   15.8440   13.8410 O      33966 WAT       0.0742
  33967 WAT        27.9090   15.8440   14.0910 O      33967 WAT       0.0570
  33968 WAT        27.9090   15.8440   16.0910 O      33968 WAT       0.0452
  33969 WAT        27.9090   15.8440   16.3410 O      33969 WAT       0.0514
  33970 WAT        27.9090   15.8440   16.5910 O      33970 WAT       0.0522
  33971 WAT        27.9090   15.8440   16.8410 O      33971 WAT       0.0477
  33972 WAT        27.9090   16.0940   12.5910 O      33972 WAT       0.0542
  33973 WAT        27.9090   16.0940   12.8410 O      33973 WAT       0.0841
  33974 WAT        27.9090   16.0940   13.0910 O      33974 WAT       0.1186
  33975 WAT        27.9090   16.0940   13.3410 O      33975 WAT       0.1458
  33976 WAT        27.9090   16.0940   13.5910 O      33976 WAT       0.1546
  33977 WAT        27.9090   16.0940   13.8410 O      33977 WAT       0.1410
  33978 WAT        27.9090   16.0940   14.0910 O      33978 WAT       0.1111
  33979 WAT        27.9090   16.0940   14.3410 O      33979 WAT       0.0770
  33980 WAT        27.9090   16.0940   14.5910 O      33980 WAT       0.0494
  33981 WAT        27.9090   16.0940   16.3410 O      33981 WAT       0.0515
  33982 WAT        27.9090   16.0940   16.5910 O      33982 WAT       0.0529
  33983 WAT        27.9090   16.0940   16.8410 O      33983 WAT       0.0486
  33984 WAT        27.9090   16.3440   12.5910 O      33984 WAT       0.0706
  33985 WAT        27.9090   16.3440   12.8410 O      33985 WAT       0.1105
  33986 WAT        27.9090   16.3440   13.0910 O      33986 WAT       0.1578
  33987 WAT        27.9090   16.3440   13.3410 O      33987 WAT       0.1986
  33988 WAT        27.9090   16.3440   13.5910 O      33988 WAT       0.2176
  33989 WAT        27.9090   16.3440   13.8410 O      33989 WAT       0.2063
  33990 WAT        27.9090   16.3440   14.0910 O      33990 WAT       0.1692
  33991 WAT        27.9090   16.3440   14.3410 O      33991 WAT       0.1211
  33992 WAT        27.9090   16.3440   14.5910 O      33992 WAT       0.0774
  33993 WAT        27.9090   16.3440   14.8410 O      33993 WAT       0.0472
  33994 WAT        27.9090   16.3440   16.3410 O      33994 WAT       0.0490
  33995 WAT        27.9090   16.3440   16.5910 O      33995 WAT       0.0510
  33996 WAT        27.9090   16.3440   16.8410 O      33996 WAT       0.0475
  33997 WAT        27.9090   16.5940   12.3410 O      33997 WAT       0.0460
  33998 WAT        27.9090   16.5940   12.5910 O      33998 WAT       0.0698
  33999 WAT        27.9090   16.5940   12.8410 O      33999 WAT       0.1071
  34000 WAT        27.9090   16.5940   13.0910 O      34000 WAT       0.1535
  34001 WAT        27.9090   16.5940   13.3410 O      34001 WAT       0.1978
  34002 WAT        27.9090   16.5940   13.5910 O      34002 WAT       0.2251
  34003 WAT        27.9090   16.5940   13.8410 O      34003 WAT       0.2233
  34004 WAT        27.9090   16.5940   14.0910 O      34004 WAT       0.1917
  34005 WAT        27.9090   16.5940   14.3410 O      34005 WAT       0.1426
  34006 WAT        27.9090   16.5940   14.5910 O      34006 WAT       0.0930
  34007 WAT        27.9090   16.5940   14.8410 O      34007 WAT       0.0556
  34008 WAT        27.9090   16.8440   12.5910 O      34008 WAT       0.0504
  34009 WAT        27.9090   16.8440   12.8410 O      34009 WAT       0.0747
  34010 WAT        27.9090   16.8440   13.0910 O      34010 WAT       0.1072
  34011 WAT        27.9090   16.8440   13.3410 O      34011 WAT       0.1419
  34012 WAT        27.9090   16.8440   13.5910 O      34012 WAT       0.1683
  34013 WAT        27.9090   16.8440   13.8410 O      34013 WAT       0.1750
  34014 WAT        27.9090   16.8440   14.0910 O      34014 WAT       0.1573
  34015 WAT        27.9090   16.8440   14.3410 O      34015 WAT       0.1214
  34016 WAT        27.9090   16.8440   14.5910 O      34016 WAT       0.0808
  34017 WAT        27.9090   16.8440   14.8410 O      34017 WAT       0.0479
  34018 WAT        27.9090   17.0940    9.0910 O      34018 WAT       0.0520
  34019 WAT        27.9090   17.0940    9.3410 O      34019 WAT       0.0617
  34020 WAT        27.9090   17.0940    9.5910 O      34020 WAT       0.0641
  34021 WAT        27.9090   17.0940    9.8410 O      34021 WAT       0.0590
  34022 WAT        27.9090   17.0940   10.0910 O      34022 WAT       0.0497
  34023 WAT        27.9090   17.0940   13.0910 O      34023 WAT       0.0530
  34024 WAT        27.9090   17.0940   13.3410 O      34024 WAT       0.0723
  34025 WAT        27.9090   17.0940   13.5910 O      34025 WAT       0.0896
  34026 WAT        27.9090   17.0940   13.8410 O      34026 WAT       0.0977
  34027 WAT        27.9090   17.0940   14.0910 O      34027 WAT       0.0914
  34028 WAT        27.9090   17.0940   14.3410 O      34028 WAT       0.0726
  34029 WAT        27.9090   17.0940   14.5910 O      34029 WAT       0.0487
  34030 WAT        27.9090   17.0940   18.0910 O      34030 WAT       0.0475
  34031 WAT        27.9090   17.0940   18.3410 O      34031 WAT       0.0469
  34032 WAT        27.9090   17.3440    8.8410 O      34032 WAT       0.0592
  34033 WAT        27.9090   17.3440    9.0910 O      34033 WAT       0.0760
  34034 WAT        27.9090   17.3440    9.3410 O      34034 WAT       0.0840
  34035 WAT        27.9090   17.3440    9.5910 O      34035 WAT       0.0806
  34036 WAT        27.9090   17.3440    9.8410 O      34036 WAT       0.0683
  34037 WAT        27.9090   17.3440   10.0910 O      34037 WAT       0.0527
  34038 WAT        27.9090   17.3440   17.8410 O      34038 WAT       0.0532
  34039 WAT        27.9090   17.3440   18.0910 O      34039 WAT       0.0625
  34040 WAT        27.9090   17.3440   18.3410 O      34040 WAT       0.0639
  34041 WAT        27.9090   17.3440   18.5910 O      34041 WAT       0.0569
  34042 WAT        27.9090   17.3440   18.8410 O      34042 WAT       0.0453
  34043 WAT        27.9090   17.5940    8.5910 O      34043 WAT       0.0559
  34044 WAT        27.9090   17.5940    8.8410 O      34044 WAT       0.0787
  34045 WAT        27.9090   17.5940    9.0910 O      34045 WAT       0.0946
  34046 WAT        27.9090   17.5940    9.3410 O      34046 WAT       0.0969
  34047 WAT        27.9090   17.5940    9.5910 O      34047 WAT       0.0858
  34048 WAT        27.9090   17.5940    9.8410 O      34048 WAT       0.0669
  34049 WAT        27.9090   17.5940   10.0910 O      34049 WAT       0.0474
  34050 WAT        27.9090   17.5940   17.8410 O      34050 WAT       0.0576
  34051 WAT        27.9090   17.5940   18.0910 O      34051 WAT       0.0729
  34052 WAT        27.9090   17.5940   18.3410 O      34052 WAT       0.0783
  34053 WAT        27.9090   17.5940   18.5910 O      34053 WAT       0.0723
  34054 WAT        27.9090   17.5940   18.8410 O      34054 WAT       0.0590
  34055 WAT        27.9090   17.8440    8.5910 O      34055 WAT       0.0677
  34056 WAT        27.9090   17.8440    8.8410 O      34056 WAT       0.0898
  34057 WAT        27.9090   17.8440    9.0910 O      34057 WAT       0.1004
  34058 WAT        27.9090   17.8440    9.3410 O      34058 WAT       0.0948
  34059 WAT        27.9090   17.8440    9.5910 O      34059 WAT       0.0772
  34060 WAT        27.9090   17.8440    9.8410 O      34060 WAT       0.0553
  34061 WAT        27.9090   17.8440   17.8410 O      34061 WAT       0.0510
  34062 WAT        27.9090   17.8440   18.0910 O      34062 WAT       0.0698
  34063 WAT        27.9090   17.8440   18.3410 O      34063 WAT       0.0802
  34064 WAT        27.9090   17.8440   18.5910 O      34064 WAT       0.0788
  34065 WAT        27.9090   17.8440   18.8410 O      34065 WAT       0.0680
  34066 WAT        27.9090   17.8440   19.0910 O      34066 WAT       0.0531
  34067 WAT        27.9090   18.0940    8.3410 O      34067 WAT       0.0496
  34068 WAT        27.9090   18.0940    8.5910 O      34068 WAT       0.0708
  34069 WAT        27.9090   18.0940    8.8410 O      34069 WAT       0.0876
  34070 WAT        27.9090   18.0940    9.0910 O      34070 WAT       0.0904
  34071 WAT        27.9090   18.0940    9.3410 O      34071 WAT       0.0783
  34072 WAT        27.9090   18.0940    9.5910 O      34072 WAT       0.0580
  34073 WAT        27.9090   18.0940   18.0910 O      34073 WAT       0.0522
  34074 WAT        27.9090   18.0940   18.3410 O      34074 WAT       0.0651
  34075 WAT        27.9090   18.0940   18.5910 O      34075 WAT       0.0697
  34076 WAT        27.9090   18.0940   18.8410 O      34076 WAT       0.0658
  34077 WAT        27.9090   18.0940   19.0910 O      34077 WAT       0.0565
  34078 WAT        27.9090   18.0940   19.3410 O      34078 WAT       0.0450
  34079 WAT        27.9090   18.3440    6.8410 O      34079 WAT       0.0454
  34080 WAT        27.9090   18.3440    7.0910 O      34080 WAT       0.0460
  34081 WAT        27.9090   18.3440    8.3410 O      34081 WAT       0.0476
  34082 WAT        27.9090   18.3440    8.5910 O      34082 WAT       0.0629
  34083 WAT        27.9090   18.3440    8.8410 O      34083 WAT       0.0721
  34084 WAT        27.9090   18.3440    9.0910 O      34084 WAT       0.0685
  34085 WAT        27.9090   18.3440    9.3410 O      34085 WAT       0.0540
  34086 WAT        27.9090   18.3440   18.5910 O      34086 WAT       0.0483
  34087 WAT        27.9090   18.3440   18.8410 O      34087 WAT       0.0517
  34088 WAT        27.9090   18.3440   19.0910 O      34088 WAT       0.0510
  34089 WAT        27.9090   18.3440   19.3410 O      34089 WAT       0.0466
  34090 WAT        27.9090   18.3440   22.8410 O      34090 WAT       0.0451
  34091 WAT        27.9090   18.5940    6.5910 O      34091 WAT       0.0496
  34092 WAT        27.9090   18.5940    6.8410 O      34092 WAT       0.0557
  34093 WAT        27.9090   18.5940    7.0910 O      34093 WAT       0.0566
  34094 WAT        27.9090   18.5940    7.3410 O      34094 WAT       0.0513
  34095 WAT        27.9090   18.5940    8.5910 O      34095 WAT       0.0465
  34096 WAT        27.9090   18.5940    8.8410 O      34096 WAT       0.0491
  34097 WAT        27.9090   18.5940   22.5910 O      34097 WAT       0.0470
  34098 WAT        27.9090   18.5940   22.8410 O      34098 WAT       0.0490
  34099 WAT        27.9090   18.5940   23.0910 O      34099 WAT       0.0472
  34100 WAT        27.9090   18.8440    6.3410 O      34100 WAT       0.0475
  34101 WAT        27.9090   18.8440    6.5910 O      34101 WAT       0.0585
  34102 WAT        27.9090   18.8440    6.8410 O      34102 WAT       0.0657
  34103 WAT        27.9090   18.8440    7.0910 O      34103 WAT       0.0662
  34104 WAT        27.9090   18.8440    7.3410 O      34104 WAT       0.0592
  34105 WAT        27.9090   18.8440    7.5910 O      34105 WAT       0.0475
  34106 WAT        27.9090   18.8440   22.5910 O      34106 WAT       0.0488
  34107 WAT        27.9090   18.8440   22.8410 O      34107 WAT       0.0512
  34108 WAT        27.9090   18.8440   23.0910 O      34108 WAT       0.0489
  34109 WAT        27.9090   18.8440   25.3410 O      34109 WAT       0.0481
  34110 WAT        27.9090   18.8440   25.5910 O      34110 WAT       0.0479
  34111 WAT        27.9090   19.0940    6.3410 O      34111 WAT       0.0499
  34112 WAT        27.9090   19.0940    6.5910 O      34112 WAT       0.0624
  34113 WAT        27.9090   19.0940    6.8410 O      34113 WAT       0.0698
  34114 WAT        27.9090   19.0940    7.0910 O      34114 WAT       0.0692
  34115 WAT        27.9090   19.0940    7.3410 O      34115 WAT       0.0608
  34116 WAT        27.9090   19.0940    7.5910 O      34116 WAT       0.0475
  34117 WAT        27.9090   19.0940   22.5910 O      34117 WAT       0.0489
  34118 WAT        27.9090   19.0940   22.8410 O      34118 WAT       0.0521
  34119 WAT        27.9090   19.0940   23.0910 O      34119 WAT       0.0501
  34120 WAT        27.9090   19.0940   25.0910 O      34120 WAT       0.0510
  34121 WAT        27.9090   19.0940   25.3410 O      34121 WAT       0.0580
  34122 WAT        27.9090   19.0940   25.5910 O      34122 WAT       0.0585
  34123 WAT        27.9090   19.0940   25.8410 O      34123 WAT       0.0527
  34124 WAT        27.9090   19.3440    6.5910 O      34124 WAT       0.0543
  34125 WAT        27.9090   19.3440    6.8410 O      34125 WAT       0.0605
  34126 WAT        27.9090   19.3440    7.0910 O      34126 WAT       0.0591
  34127 WAT        27.9090   19.3440    7.3410 O      34127 WAT       0.0512
  34128 WAT        27.9090   19.3440   22.5910 O      34128 WAT       0.0481
  34129 WAT        27.9090   19.3440   22.8410 O      34129 WAT       0.0523
  34130 WAT        27.9090   19.3440   23.0910 O      34130 WAT       0.0511
  34131 WAT        27.9090   19.3440   23.3410 O      34131 WAT       0.0457
  34132 WAT        27.9090   19.3440   25.0910 O      34132 WAT       0.0578
  34133 WAT        27.9090   19.3440   25.3410 O      34133 WAT       0.0678
  34134 WAT        27.9090   19.3440   25.5910 O      34134 WAT       0.0697
  34135 WAT        27.9090   19.3440   25.8410 O      34135 WAT       0.0634
  34136 WAT        27.9090   19.3440   26.0910 O      34136 WAT       0.0528
  34137 WAT        27.9090   19.5940   22.5910 O      34137 WAT       0.0473
  34138 WAT        27.9090   19.5940   22.8410 O      34138 WAT       0.0525
  34139 WAT        27.9090   19.5940   23.0910 O      34139 WAT       0.0522
  34140 WAT        27.9090   19.5940   23.3410 O      34140 WAT       0.0469
  34141 WAT        27.9090   19.5940   24.8410 O      34141 WAT       0.0468
  34142 WAT        27.9090   19.5940   25.0910 O      34142 WAT       0.0634
  34143 WAT        27.9090   19.5940   25.3410 O      34143 WAT       0.0764
  34144 WAT        27.9090   19.5940   25.5910 O      34144 WAT       0.0799
  34145 WAT        27.9090   19.5940   25.8410 O      34145 WAT       0.0738
  34146 WAT        27.9090   19.5940   26.0910 O      34146 WAT       0.0619
  34147 WAT        27.9090   19.5940   26.3410 O      34147 WAT       0.0487
  34148 WAT        27.9090   19.8440   22.5910 O      34148 WAT       0.0466
  34149 WAT        27.9090   19.8440   22.8410 O      34149 WAT       0.0527
  34150 WAT        27.9090   19.8440   23.0910 O      34150 WAT       0.0531
  34151 WAT        27.9090   19.8440   23.3410 O      34151 WAT       0.0482
  34152 WAT        27.9090   19.8440   24.8410 O      34152 WAT       0.0476
  34153 WAT        27.9090   19.8440   25.0910 O      34153 WAT       0.0662
  34154 WAT        27.9090   19.8440   25.3410 O      34154 WAT       0.0811
  34155 WAT        27.9090   19.8440   25.5910 O      34155 WAT       0.0860
  34156 WAT        27.9090   19.8440   25.8410 O      34156 WAT       0.0804
  34157 WAT        27.9090   19.8440   26.0910 O      34157 WAT       0.0682
  34158 WAT        27.9090   19.8440   26.3410 O      34158 WAT       0.0540
  34159 WAT        27.9090   20.0940   22.5910 O      34159 WAT       0.0452
  34160 WAT        27.9090   20.0940   22.8410 O      34160 WAT       0.0520
  34161 WAT        27.9090   20.0940   23.0910 O      34161 WAT       0.0536
  34162 WAT        27.9090   20.0940   23.3410 O      34162 WAT       0.0494
  34163 WAT        27.9090   20.0940   24.8410 O      34163 WAT       0.0464
  34164 WAT        27.9090   20.0940   25.0910 O      34164 WAT       0.0648
  34165 WAT        27.9090   20.0940   25.3410 O      34165 WAT       0.0800
  34166 WAT        27.9090   20.0940   25.5910 O      34166 WAT       0.0856
  34167 WAT        27.9090   20.0940   25.8410 O      34167 WAT       0.0812
  34168 WAT        27.9090   20.0940   26.0910 O      34168 WAT       0.0702
  34169 WAT        27.9090   20.0940   26.3410 O      34169 WAT       0.0564
  34170 WAT        27.9090   20.3440   22.8410 O      34170 WAT       0.0500
  34171 WAT        27.9090   20.3440   23.0910 O      34171 WAT       0.0529
  34172 WAT        27.9090   20.3440   23.3410 O      34172 WAT       0.0500
  34173 WAT        27.9090   20.3440   25.0910 O      34173 WAT       0.0586
  34174 WAT        27.9090   20.3440   25.3410 O      34174 WAT       0.0725
  34175 WAT        27.9090   20.3440   25.5910 O      34175 WAT       0.0788
  34176 WAT        27.9090   20.3440   25.8410 O      34176 WAT       0.0765
  34177 WAT        27.9090   20.3440   26.0910 O      34177 WAT       0.0679
  34178 WAT        27.9090   20.3440   26.3410 O      34178 WAT       0.0558
  34179 WAT        27.9090   20.5940   20.5910 O      34179 WAT       0.0459
  34180 WAT        27.9090   20.5940   22.8410 O      34180 WAT       0.0468
  34181 WAT        27.9090   20.5940   23.0910 O      34181 WAT       0.0506
  34182 WAT        27.9090   20.5940   23.3410 O      34182 WAT       0.0492
  34183 WAT        27.9090   20.5940   25.0910 O      34183 WAT       0.0486
  34184 WAT        27.9090   20.5940   25.3410 O      34184 WAT       0.0605
  34185 WAT        27.9090   20.5940   25.5910 O      34185 WAT       0.0674
  34186 WAT        27.9090   20.5940   25.8410 O      34186 WAT       0.0676
  34187 WAT        27.9090   20.5940   26.0910 O      34187 WAT       0.0617
  34188 WAT        27.9090   20.5940   26.3410 O      34188 WAT       0.0522
  34189 WAT        27.9090   20.8440   20.5910 O      34189 WAT       0.0503
  34190 WAT        27.9090   20.8440   20.8410 O      34190 WAT       0.0508
  34191 WAT        27.9090   20.8440   21.0910 O      34191 WAT       0.0475
  34192 WAT        27.9090   20.8440   23.0910 O      34192 WAT       0.0470
  34193 WAT        27.9090   20.8440   23.3410 O      34193 WAT       0.0468
  34194 WAT        27.9090   20.8440   25.3410 O      34194 WAT       0.0475
  34195 WAT        27.9090   20.8440   25.5910 O      34195 WAT       0.0543
  34196 WAT        27.9090   20.8440   25.8410 O      34196 WAT       0.0561
  34197 WAT        27.9090   20.8440   26.0910 O      34197 WAT       0.0528
  34198 WAT        27.9090   20.8440   26.3410 O      34198 WAT       0.0461
  34199 WAT        27.9090   21.0940   20.5910 O      34199 WAT       0.0537
  34200 WAT        27.9090   21.0940   20.8410 O      34200 WAT       0.0567
  34201 WAT        27.9090   21.0940   21.0910 O      34201 WAT       0.0547
  34202 WAT        27.9090   21.0940   21.3410 O      34202 WAT       0.0491
  34203 WAT        27.9090   21.3440   20.5910 O      34203 WAT       0.0551
  34204 WAT        27.9090   21.3440   20.8410 O      34204 WAT       0.0604
  34205 WAT        27.9090   21.3440   21.0910 O      34205 WAT       0.0601
  34206 WAT        27.9090   21.3440   21.3410 O      34206 WAT       0.0553
  34207 WAT        27.9090   21.3440   21.5910 O      34207 WAT       0.0476
  34208 WAT        27.9090   21.5940   20.5910 O      34208 WAT       0.0540
  34209 WAT        27.9090   21.5940   20.8410 O      34209 WAT       0.0611
  34210 WAT        27.9090   21.5940   21.0910 O      34210 WAT       0.0633
  34211 WAT        27.9090   21.5940   21.3410 O      34211 WAT       0.0602
  34212 WAT        27.9090   21.5940   21.5910 O      34212 WAT       0.0525
  34213 WAT        27.9090   21.8440   20.5910 O      34213 WAT       0.0509
  34214 WAT        27.9090   21.8440   20.8410 O      34214 WAT       0.0593
  34215 WAT        27.9090   21.8440   21.0910 O      34215 WAT       0.0636
  34216 WAT        27.9090   21.8440   21.3410 O      34216 WAT       0.0624
  34217 WAT        27.9090   21.8440   21.5910 O      34217 WAT       0.0553
  34218 WAT        27.9090   21.8440   21.8410 O      34218 WAT       0.0450
  34219 WAT        27.9090   22.0940   20.5910 O      34219 WAT       0.0463
  34220 WAT        27.9090   22.0940   20.8410 O      34220 WAT       0.0551
  34221 WAT        27.9090   22.0940   21.0910 O      34221 WAT       0.0604
  34222 WAT        27.9090   22.0940   21.3410 O      34222 WAT       0.0605
  34223 WAT        27.9090   22.0940   21.5910 O      34223 WAT       0.0549
  34224 WAT        27.9090   22.0940   21.8410 O      34224 WAT       0.0455
  34225 WAT        27.9090   22.3440   20.8410 O      34225 WAT       0.0492
  34226 WAT        27.9090   22.3440   21.0910 O      34226 WAT       0.0544
  34227 WAT        27.9090   22.3440   21.3410 O      34227 WAT       0.0557
  34228 WAT        27.9090   22.3440   21.5910 O      34228 WAT       0.0520
  34229 WAT        27.9090   22.5940   21.0910 O      34229 WAT       0.0473
  34230 WAT        27.9090   22.5940   21.3410 O      34230 WAT       0.0494
  34231 WAT        27.9090   22.5940   21.5910 O      34231 WAT       0.0479
  34232 WAT        27.9090   26.0940    2.5910 O      34232 WAT       0.0472
  34233 WAT        27.9090   26.0940    2.8410 O      34233 WAT       0.0593
  34234 WAT        27.9090   26.0940    3.0910 O      34234 WAT       0.0534
  34235 WAT        27.9090   26.3440    2.5910 O      34235 WAT       0.0638
  34236 WAT        27.9090   26.3440    2.8410 O      34236 WAT       0.0900
  34237 WAT        27.9090   26.3440    3.0910 O      34237 WAT       0.0877
  34238 WAT        27.9090   26.3440    3.3410 O      34238 WAT       0.0576
  34239 WAT        27.9090   26.5940    2.5910 O      34239 WAT       0.0644
  34240 WAT        27.9090   26.5940    2.8410 O      34240 WAT       0.0977
  34241 WAT        27.9090   26.5940    3.0910 O      34241 WAT       0.0999
  34242 WAT        27.9090   26.5940    3.3410 O      34242 WAT       0.0681
  34243 WAT        27.9090   26.8440    2.5910 O      34243 WAT       0.0460
  34244 WAT        27.9090   26.8440    2.8410 O      34244 WAT       0.0733
  34245 WAT        27.9090   26.8440    3.0910 O      34245 WAT       0.0775
  34246 WAT        27.9090   26.8440    3.3410 O      34246 WAT       0.0540
  34247 WAT        27.9090   27.0940   15.0910 O      34247 WAT       0.0461
  34248 WAT        27.9090   27.3440   14.8410 O      34248 WAT       0.0541
  34249 WAT        27.9090   27.3440   15.0910 O      34249 WAT       0.0622
  34250 WAT        27.9090   27.3440   15.3410 O      34250 WAT       0.0503
  34251 WAT        27.9090   27.5940   14.5910 O      34251 WAT       0.0540
  34252 WAT        27.9090   27.5940   14.8410 O      34252 WAT       0.0755
  34253 WAT        27.9090   27.5940   15.0910 O      34253 WAT       0.0745
  34254 WAT        27.9090   27.5940   15.3410 O      34254 WAT       0.0538
  34255 WAT        27.9090   27.8440   14.5910 O      34255 WAT       0.0753
  34256 WAT        27.9090   27.8440   14.8410 O      34256 WAT       0.0909
  34257 WAT        27.9090   27.8440   15.0910 O      34257 WAT       0.0793
  34258 WAT        27.9090   27.8440   15.3410 O      34258 WAT       0.0536
  34259 WAT        27.9090   28.0940   14.3410 O      34259 WAT       0.0550
  34260 WAT        27.9090   28.0940   14.5910 O      34260 WAT       0.0840
  34261 WAT        27.9090   28.0940   14.8410 O      34261 WAT       0.0917
  34262 WAT        27.9090   28.0940   15.0910 O      34262 WAT       0.0753
  34263 WAT        27.9090   28.0940   15.3410 O      34263 WAT       0.0522
  34264 WAT        27.9090   28.3440   14.3410 O      34264 WAT       0.0518
  34265 WAT        27.9090   28.3440   14.5910 O      34265 WAT       0.0737
  34266 WAT        27.9090   28.3440   14.8410 O      34266 WAT       0.0777
  34267 WAT        27.9090   28.3440   15.0910 O      34267 WAT       0.0658
  34268 WAT        27.9090   28.3440   15.3410 O      34268 WAT       0.0517
  34269 WAT        27.9090   28.5940   14.5910 O      34269 WAT       0.0521
  34270 WAT        27.9090   28.5940   14.8410 O      34270 WAT       0.0584
  34271 WAT        27.9090   28.5940   15.0910 O      34271 WAT       0.0569
  34272 WAT        27.9090   28.5940   15.3410 O      34272 WAT       0.0533
  34273 WAT        27.9090   28.5940   15.5910 O      34273 WAT       0.0506
  34274 WAT        27.9090   28.5940   15.8410 O      34274 WAT       0.0479
  34275 WAT        27.9090   28.8440   15.0910 O      34275 WAT       0.0519
  34276 WAT        27.9090   28.8440   15.3410 O      34276 WAT       0.0564
  34277 WAT        27.9090   28.8440   15.5910 O      34277 WAT       0.0565
  34278 WAT        27.9090   28.8440   15.8410 O      34278 WAT       0.0528
  34279 WAT        27.9090   28.8440   16.0910 O      34279 WAT       0.0456
  34280 WAT        27.9090   28.8440   19.0910 O      34280 WAT       0.0461
  34281 WAT        27.9090   29.0940   15.0910 O      34281 WAT       0.0501
  34282 WAT        27.9090   29.0940   15.3410 O      34282 WAT       0.0601
  34283 WAT        27.9090   29.0940   15.5910 O      34283 WAT       0.0609
  34284 WAT        27.9090   29.0940   15.8410 O      34284 WAT       0.0549
  34285 WAT        27.9090   29.0940   16.0910 O      34285 WAT       0.0454
  34286 WAT        27.9090   29.0940   18.8410 O      34286 WAT       0.0457
  34287 WAT        27.9090   29.0940   19.0910 O      34287 WAT       0.0479
  34288 WAT        27.9090   29.0940   19.3410 O      34288 WAT       0.0467
  34289 WAT        27.9090   29.3440   15.0910 O      34289 WAT       0.0491
  34290 WAT        27.9090   29.3440   15.3410 O      34290 WAT       0.0627
  34291 WAT        27.9090   29.3440   15.5910 O      34291 WAT       0.0640
  34292 WAT        27.9090   29.3440   15.8410 O      34292 WAT       0.0555
  34293 WAT        27.9090   29.3440   18.8410 O      34293 WAT       0.0455
  34294 WAT        27.9090   29.3440   19.0910 O      34294 WAT       0.0472
  34295 WAT        27.9090   29.3440   19.3410 O      34295 WAT       0.0460
  34296 WAT        27.9090   29.5940   15.0910 O      34296 WAT       0.0462
  34297 WAT        27.9090   29.5940   15.3410 O      34297 WAT       0.0622
  34298 WAT        27.9090   29.5940   15.5910 O      34298 WAT       0.0641
  34299 WAT        27.9090   29.5940   15.8410 O      34299 WAT       0.0542
  34300 WAT        27.9090   29.5940   19.0910 O      34300 WAT       0.0451
  34301 WAT        27.9090   29.8440   15.3410 O      34301 WAT       0.0574
  34302 WAT        27.9090   29.8440   15.5910 O      34302 WAT       0.0603
  34303 WAT        27.9090   29.8440   15.8410 O      34303 WAT       0.0506
  34304 WAT        27.9090   30.0940   15.3410 O      34304 WAT       0.0486
  34305 WAT        27.9090   30.0940   15.5910 O      34305 WAT       0.0528
  34306 WAT        27.9090   34.0940   11.5910 O      34306 WAT       0.0578
  34307 WAT        27.9090   34.0940   11.8410 O      34307 WAT       0.0541
  34308 WAT        27.9090   34.3440   11.3410 O      34308 WAT       0.0450
  34309 WAT        27.9090   34.3440   11.5910 O      34309 WAT       0.0644
  34310 WAT        27.9090   34.3440   11.8410 O      34310 WAT       0.0638
  34311 WAT        27.9090   34.3440   12.0910 O      34311 WAT       0.0483
  34312 WAT        27.9090   34.5940   11.5910 O      34312 WAT       0.0519
  34313 WAT        27.9090   34.5940   11.8410 O      34313 WAT       0.0555
  34314 WAT        27.9090   34.5940   12.0910 O      34314 WAT       0.0471
  34315 WAT        28.1590   15.3440   16.0910 O      34315 WAT       0.0452
  34316 WAT        28.1590   15.3440   16.3410 O      34316 WAT       0.0464
  34317 WAT        28.1590   15.5940   16.0910 O      34317 WAT       0.0500
  34318 WAT        28.1590   15.5940   16.3410 O      34318 WAT       0.0530
  34319 WAT        28.1590   15.5940   16.5910 O      34319 WAT       0.0508
  34320 WAT        28.1590   15.8440   13.0910 O      34320 WAT       0.0450
  34321 WAT        28.1590   15.8440   13.3410 O      34321 WAT       0.0571
  34322 WAT        28.1590   15.8440   13.5910 O      34322 WAT       0.0635
  34323 WAT        28.1590   15.8440   13.8410 O      34323 WAT       0.0614
  34324 WAT        28.1590   15.8440   14.0910 O      34324 WAT       0.0519
  34325 WAT        28.1590   15.8440   15.8410 O      34325 WAT       0.0461
  34326 WAT        28.1590   15.8440   16.0910 O      34326 WAT       0.0546
  34327 WAT        28.1590   15.8440   16.3410 O      34327 WAT       0.0592
  34328 WAT        28.1590   15.8440   16.5910 O      34328 WAT       0.0576
  34329 WAT        28.1590   15.8440   16.8410 O      34329 WAT       0.0502
  34330 WAT        28.1590   16.0940   12.8410 O      34330 WAT       0.0568
  34331 WAT        28.1590   16.0940   13.0910 O      34331 WAT       0.0844
  34332 WAT        28.1590   16.0940   13.3410 O      34332 WAT       0.1112
  34333 WAT        28.1590   16.0940   13.5910 O      34333 WAT       0.1279
  34334 WAT        28.1590   16.0940   13.8410 O      34334 WAT       0.1271
  34335 WAT        28.1590   16.0940   14.0910 O      34335 WAT       0.1092
  34336 WAT        28.1590   16.0940   14.3410 O      34336 WAT       0.0829
  34337 WAT        28.1590   16.0940   14.5910 O      34337 WAT       0.0583
  34338 WAT        28.1590   16.0940   15.8410 O      34338 WAT       0.0498
  34339 WAT        28.1590   16.0940   16.0910 O      34339 WAT       0.0592
  34340 WAT        28.1590   16.0940   16.3410 O      34340 WAT       0.0649
  34341 WAT        28.1590   16.0940   16.5910 O      34341 WAT       0.0639
  34342 WAT        28.1590   16.0940   16.8410 O      34342 WAT       0.0562
  34343 WAT        28.1590   16.0940   17.0910 O      34343 WAT       0.0453
  34344 WAT        28.1590   16.3440   12.5910 O      34344 WAT       0.0492
  34345 WAT        28.1590   16.3440   12.8410 O      34345 WAT       0.0810
  34346 WAT        28.1590   16.3440   13.0910 O      34346 WAT       0.1236
  34347 WAT        28.1590   16.3440   13.3410 O      34347 WAT       0.1681
  34348 WAT        28.1590   16.3440   13.5910 O      34348 WAT       0.2004
  34349 WAT        28.1590   16.3440   13.8410 O      34349 WAT       0.2063
  34350 WAT        28.1590   16.3440   14.0910 O      34350 WAT       0.1829
  34351 WAT        28.1590   16.3440   14.3410 O      34351 WAT       0.1409
  34352 WAT        28.1590   16.3440   14.5910 O      34352 WAT       0.0970
  34353 WAT        28.1590   16.3440   14.8410 O      34353 WAT       0.0638
  34354 WAT        28.1590   16.3440   15.0910 O      34354 WAT       0.0453
  34355 WAT        28.1590   16.3440   15.8410 O      34355 WAT       0.0515
  34356 WAT        28.1590   16.3440   16.0910 O      34356 WAT       0.0608
  34357 WAT        28.1590   16.3440   16.3410 O      34357 WAT       0.0673
  34358 WAT        28.1590   16.3440   16.5910 O      34358 WAT       0.0674
  34359 WAT        28.1590   16.3440   16.8410 O      34359 WAT       0.0603
  34360 WAT        28.1590   16.3440   17.0910 O      34360 WAT       0.0492
  34361 WAT        28.1590   16.5940   12.5910 O      34361 WAT       0.0531
  34362 WAT        28.1590   16.5940   12.8410 O      34362 WAT       0.0872
  34363 WAT        28.1590   16.5940   13.0910 O      34363 WAT       0.1351
  34364 WAT        28.1590   16.5940   13.3410 O      34364 WAT       0.1895
  34365 WAT        28.1590   16.5940   13.5910 O      34365 WAT       0.2344
  34366 WAT        28.1590   16.5940   13.8410 O      34366 WAT       0.2508
  34367 WAT        28.1590   16.5940   14.0910 O      34367 WAT       0.2300
  34368 WAT        28.1590   16.5940   14.3410 O      34368 WAT       0.1811
  34369 WAT        28.1590   16.5940   14.5910 O      34369 WAT       0.1245
  34370 WAT        28.1590   16.5940   14.8410 O      34370 WAT       0.0786
  34371 WAT        28.1590   16.5940   15.0910 O      34371 WAT       0.0509
  34372 WAT        28.1590   16.5940   15.8410 O      34372 WAT       0.0457
  34373 WAT        28.1590   16.5940   16.0910 O      34373 WAT       0.0543
  34374 WAT        28.1590   16.5940   16.3410 O      34374 WAT       0.0615
  34375 WAT        28.1590   16.5940   16.5910 O      34375 WAT       0.0639
  34376 WAT        28.1590   16.5940   16.8410 O      34376 WAT       0.0596
  34377 WAT        28.1590   16.5940   17.0910 O      34377 WAT       0.0505
  34378 WAT        28.1590   16.8440    9.8410 O      34378 WAT       0.0452
  34379 WAT        28.1590   16.8440   10.0910 O      34379 WAT       0.0464
  34380 WAT        28.1590   16.8440   10.3410 O      34380 WAT       0.0456
  34381 WAT        28.1590   16.8440   12.8410 O      34381 WAT       0.0687
  34382 WAT        28.1590   16.8440   13.0910 O      34382 WAT       0.1077
  34383 WAT        28.1590   16.8440   13.3410 O      34383 WAT       0.1557
  34384 WAT        28.1590   16.8440   13.5910 O      34384 WAT       0.2002
  34385 WAT        28.1590   16.8440   13.8410 O      34385 WAT       0.2225
  34386 WAT        28.1590   16.8440   14.0910 O      34386 WAT       0.2105
  34387 WAT        28.1590   16.8440   14.3410 O      34387 WAT       0.1688
  34388 WAT        28.1590   16.8440   14.5910 O      34388 WAT       0.1159
  34389 WAT        28.1590   16.8440   14.8410 O      34389 WAT       0.0710
  34390 WAT        28.1590   16.8440   16.3410 O      34390 WAT       0.0461
  34391 WAT        28.1590   16.8440   16.5910 O      34391 WAT       0.0513
  34392 WAT        28.1590   16.8440   16.8410 O      34392 WAT       0.0516
  34393 WAT        28.1590   16.8440   17.0910 O      34393 WAT       0.0473
  34394 WAT        28.1590   17.0940    9.3410 O      34394 WAT       0.0572
  34395 WAT        28.1590   17.0940    9.5910 O      34395 WAT       0.0666
  34396 WAT        28.1590   17.0940    9.8410 O      34396 WAT       0.0689
  34397 WAT        28.1590   17.0940   10.0910 O      34397 WAT       0.0653
  34398 WAT        28.1590   17.0940   10.3410 O      34398 WAT       0.0593
  34399 WAT        28.1590   17.0940   10.5910 O      34399 WAT       0.0536
  34400 WAT        28.1590   17.0940   10.8410 O      34400 WAT       0.0483
  34401 WAT        28.1590   17.0940   13.0910 O      34401 WAT       0.0615
  34402 WAT        28.1590   17.0940   13.3410 O      34402 WAT       0.0917
  34403 WAT        28.1590   17.0940   13.5910 O      34403 WAT       0.1225
  34404 WAT        28.1590   17.0940   13.8410 O      34404 WAT       0.1410
  34405 WAT        28.1590   17.0940   14.0910 O      34405 WAT       0.1368
  34406 WAT        28.1590   17.0940   14.3410 O      34406 WAT       0.1108
  34407 WAT        28.1590   17.0940   14.5910 O      34407 WAT       0.0753
  34408 WAT        28.1590   17.3440    8.8410 O      34408 WAT       0.0480
  34409 WAT        28.1590   17.3440    9.0910 O      34409 WAT       0.0679
  34410 WAT        28.1590   17.3440    9.3410 O      34410 WAT       0.0848
  34411 WAT        28.1590   17.3440    9.5910 O      34411 WAT       0.0927
  34412 WAT        28.1590   17.3440    9.8410 O      34412 WAT       0.0891
  34413 WAT        28.1590   17.3440   10.0910 O      34413 WAT       0.0779
  34414 WAT        28.1590   17.3440   10.3410 O      34414 WAT       0.0652
  34415 WAT        28.1590   17.3440   10.5910 O      34415 WAT       0.0542
  34416 WAT        28.1590   17.3440   10.8410 O      34416 WAT       0.0451
  34417 WAT        28.1590   17.3440   13.5910 O      34417 WAT       0.0525
  34418 WAT        28.1590   17.3440   13.8410 O      34418 WAT       0.0624
  34419 WAT        28.1590   17.3440   14.0910 O      34419 WAT       0.0616
  34420 WAT        28.1590   17.3440   14.3410 O      34420 WAT       0.0499
  34421 WAT        28.1590   17.3440   17.8410 O      34421 WAT       0.0462
  34422 WAT        28.1590   17.3440   18.0910 O      34422 WAT       0.0502
  34423 WAT        28.1590   17.3440   18.3410 O      34423 WAT       0.0491
  34424 WAT        28.1590   17.5940    8.8410 O      34424 WAT       0.0657
  34425 WAT        28.1590   17.5940    9.0910 O      34425 WAT       0.0894
  34426 WAT        28.1590   17.5940    9.3410 O      34426 WAT       0.1054
  34427 WAT        28.1590   17.5940    9.5910 O      34427 WAT       0.1075
  34428 WAT        28.1590   17.5940    9.8410 O      34428 WAT       0.0962
  34429 WAT        28.1590   17.5940   10.0910 O      34429 WAT       0.0778
  34430 WAT        28.1590   17.5940   10.3410 O      34430 WAT       0.0597
  34431 WAT        28.1590   17.5940   10.5910 O      34431 WAT       0.0452
  34432 WAT        28.1590   17.5940   17.8410 O      34432 WAT       0.0463
  34433 WAT        28.1590   17.5940   18.0910 O      34433 WAT       0.0549
  34434 WAT        28.1590   17.5940   18.3410 O      34434 WAT       0.0573
  34435 WAT        28.1590   17.5940   18.5910 O      34435 WAT       0.0529
  34436 WAT        28.1590   17.8440    8.5910 O      34436 WAT       0.0530
  34437 WAT        28.1590   17.8440    8.8410 O      34437 WAT       0.0780
  34438 WAT        28.1590   17.8440    9.0910 O      34438 WAT       0.0994
  34439 WAT        28.1590   17.8440    9.3410 O      34439 WAT       0.1087
  34440 WAT        28.1590   17.8440    9.5910 O      34440 WAT       0.1027
  34441 WAT        28.1590   17.8440    9.8410 O      34441 WAT       0.0851
  34442 WAT        28.1590   17.8440   10.0910 O      34442 WAT       0.0636
  34443 WAT        28.1590   17.8440   18.0910 O      34443 WAT       0.0493
  34444 WAT        28.1590   17.8440   18.3410 O      34444 WAT       0.0558
  34445 WAT        28.1590   17.8440   18.5910 O      34445 WAT       0.0552
  34446 WAT        28.1590   17.8440   18.8410 O      34446 WAT       0.0490
  34447 WAT        28.1590   18.0940    8.5910 O      34447 WAT       0.0578
  34448 WAT        28.1590   18.0940    8.8410 O      34448 WAT       0.0788
  34449 WAT        28.1590   18.0940    9.0910 O      34449 WAT       0.0924
  34450 WAT        28.1590   18.0940    9.3410 O      34450 WAT       0.0923
  34451 WAT        28.1590   18.0940    9.5910 O      34451 WAT       0.0797
  34452 WAT        28.1590   18.0940    9.8410 O      34452 WAT       0.0607
  34453 WAT        28.1590   18.0940   18.5910 O      34453 WAT       0.0465
  34454 WAT        28.1590   18.0940   18.8410 O      34454 WAT       0.0454
  34455 WAT        28.1590   18.3440    6.8410 O      34455 WAT       0.0478
  34456 WAT        28.1590   18.3440    7.0910 O      34456 WAT       0.0486
  34457 WAT        28.1590   18.3440    8.5910 O      34457 WAT       0.0537
  34458 WAT        28.1590   18.3440    8.8410 O      34458 WAT       0.0668
  34459 WAT        28.1590   18.3440    9.0910 O      34459 WAT       0.0712
  34460 WAT        28.1590   18.3440    9.3410 O      34460 WAT       0.0643
  34461 WAT        28.1590   18.3440    9.5910 O      34461 WAT       0.0501
  34462 WAT        28.1590   18.5940    6.5910 O      34462 WAT       0.0520
  34463 WAT        28.1590   18.5940    6.8410 O      34463 WAT       0.0582
  34464 WAT        28.1590   18.5940    7.0910 O      34464 WAT       0.0598
  34465 WAT        28.1590   18.5940    7.3410 O      34465 WAT       0.0552
  34466 WAT        28.1590   18.5940    7.5910 O      34466 WAT       0.0462
  34467 WAT        28.1590   18.5940    8.8410 O      34467 WAT       0.0468
  34468 WAT        28.1590   18.5940    9.0910 O      34468 WAT       0.0451
  34469 WAT        28.1590   18.8440    6.3410 O      34469 WAT       0.0491
  34470 WAT        28.1590   18.8440    6.5910 O      34470 WAT       0.0593
  34471 WAT        28.1590   18.8440    6.8410 O      34471 WAT       0.0669
  34472 WAT        28.1590   18.8440    7.0910 O      34472 WAT       0.0691
  34473 WAT        28.1590   18.8440    7.3410 O      34473 WAT       0.0643
  34474 WAT        28.1590   18.8440    7.5910 O      34474 WAT       0.0537
  34475 WAT        28.1590   19.0940    6.3410 O      34475 WAT       0.0485
  34476 WAT        28.1590   19.0940    6.5910 O      34476 WAT       0.0598
  34477 WAT        28.1590   19.0940    6.8410 O      34477 WAT       0.0683
  34478 WAT        28.1590   19.0940    7.0910 O      34478 WAT       0.0710
  34479 WAT        28.1590   19.0940    7.3410 O      34479 WAT       0.0664
  34480 WAT        28.1590   19.0940    7.5910 O      34480 WAT       0.0554
  34481 WAT        28.1590   19.3440    6.5910 O      34481 WAT       0.0491
  34482 WAT        28.1590   19.3440    6.8410 O      34482 WAT       0.0570
  34483 WAT        28.1590   19.3440    7.0910 O      34483 WAT       0.0598
  34484 WAT        28.1590   19.3440    7.3410 O      34484 WAT       0.0565
  34485 WAT        28.1590   19.3440    7.5910 O      34485 WAT       0.0474
  34486 WAT        28.1590   19.3440   25.5910 O      34486 WAT       0.0496
  34487 WAT        28.1590   19.3440   25.8410 O      34487 WAT       0.0499
  34488 WAT        28.1590   19.3440   26.0910 O      34488 WAT       0.0462
  34489 WAT        28.1590   19.5940   22.8410 O      34489 WAT       0.0454
  34490 WAT        28.1590   19.5940   23.0910 O      34490 WAT       0.0461
  34491 WAT        28.1590   19.5940   25.3410 O      34491 WAT       0.0491
  34492 WAT        28.1590   19.5940   25.5910 O      34492 WAT       0.0557
  34493 WAT        28.1590   19.5940   25.8410 O      34493 WAT       0.0570
  34494 WAT        28.1590   19.5940   26.0910 O      34494 WAT       0.0531
  34495 WAT        28.1590   19.5940   26.3410 O      34495 WAT       0.0458
  34496 WAT        28.1590   19.8440   22.8410 O      34496 WAT       0.0474
  34497 WAT        28.1590   19.8440   23.0910 O      34497 WAT       0.0488
  34498 WAT        28.1590   19.8440   23.3410 O      34498 WAT       0.0454
  34499 WAT        28.1590   19.8440   25.3410 O      34499 WAT       0.0507
  34500 WAT        28.1590   19.8440   25.5910 O      34500 WAT       0.0581
  34501 WAT        28.1590   19.8440   25.8410 O      34501 WAT       0.0601
  34502 WAT        28.1590   19.8440   26.0910 O      34502 WAT       0.0566
  34503 WAT        28.1590   19.8440   26.3410 O      34503 WAT       0.0492
  34504 WAT        28.1590   20.0940   22.8410 O      34504 WAT       0.0482
  34505 WAT        28.1590   20.0940   23.0910 O      34505 WAT       0.0504
  34506 WAT        28.1590   20.0940   23.3410 O      34506 WAT       0.0474
  34507 WAT        28.1590   20.0940   25.3410 O      34507 WAT       0.0485
  34508 WAT        28.1590   20.0940   25.5910 O      34508 WAT       0.0557
  34509 WAT        28.1590   20.0940   25.8410 O      34509 WAT       0.0581
  34510 WAT        28.1590   20.0940   26.0910 O      34510 WAT       0.0555
  34511 WAT        28.1590   20.0940   26.3410 O      34511 WAT       0.0490
  34512 WAT        28.1590   20.3440   22.8410 O      34512 WAT       0.0470
  34513 WAT        28.1590   20.3440   23.0910 O      34513 WAT       0.0503
  34514 WAT        28.1590   20.3440   23.3410 O      34514 WAT       0.0483
  34515 WAT        28.1590   20.3440   25.5910 O      34515 WAT       0.0494
  34516 WAT        28.1590   20.3440   25.8410 O      34516 WAT       0.0522
  34517 WAT        28.1590   20.3440   26.0910 O      34517 WAT       0.0508
  34518 WAT        28.1590   20.3440   26.3410 O      34518 WAT       0.0457
  34519 WAT        28.1590   20.5940   20.5910 O      34519 WAT       0.0487
  34520 WAT        28.1590   20.5940   20.8410 O      34520 WAT       0.0475
  34521 WAT        28.1590   20.5940   23.0910 O      34521 WAT       0.0481
  34522 WAT        28.1590   20.5940   23.3410 O      34522 WAT       0.0473
  34523 WAT        28.1590   20.8440   20.3410 O      34523 WAT       0.0470
  34524 WAT        28.1590   20.8440   20.5910 O      34524 WAT       0.0546
  34525 WAT        28.1590   20.8440   20.8410 O      34525 WAT       0.0548
  34526 WAT        28.1590   20.8440   21.0910 O      34526 WAT       0.0502
  34527 WAT        28.1590   21.0940   20.3410 O      34527 WAT       0.0504
  34528 WAT        28.1590   21.0940   20.5910 O      34528 WAT       0.0600
  34529 WAT        28.1590   21.0940   20.8410 O      34529 WAT       0.0615
  34530 WAT        28.1590   21.0940   21.0910 O      34530 WAT       0.0572
  34531 WAT        28.1590   21.0940   21.3410 O      34531 WAT       0.0496
  34532 WAT        28.1590   21.3440   20.3410 O      34532 WAT       0.0517
  34533 WAT        28.1590   21.3440   20.5910 O      34533 WAT       0.0626
  34534 WAT        28.1590   21.3440   20.8410 O      34534 WAT       0.0653
  34535 WAT        28.1590   21.3440   21.0910 O      34535 WAT       0.0619
  34536 WAT        28.1590   21.3440   21.3410 O      34536 WAT       0.0545
  34537 WAT        28.1590   21.3440   21.5910 O      34537 WAT       0.0452
  34538 WAT        28.1590   21.5940   20.3410 O      34538 WAT       0.0504
  34539 WAT        28.1590   21.5940   20.5910 O      34539 WAT       0.0619
  34540 WAT        28.1590   21.5940   20.8410 O      34540 WAT       0.0661
  34541 WAT        28.1590   21.5940   21.0910 O      34541 WAT       0.0641
  34542 WAT        28.1590   21.5940   21.3410 O      34542 WAT       0.0578
  34543 WAT        28.1590   21.5940   21.5910 O      34543 WAT       0.0483
  34544 WAT        28.1590   21.8440   20.3410 O      34544 WAT       0.0470
  34545 WAT        28.1590   21.8440   20.5910 O      34545 WAT       0.0587
  34546 WAT        28.1590   21.8440   20.8410 O      34546 WAT       0.0640
  34547 WAT        28.1590   21.8440   21.0910 O      34547 WAT       0.0636
  34548 WAT        28.1590   21.8440   21.3410 O      34548 WAT       0.0584
  34549 WAT        28.1590   21.8440   21.5910 O      34549 WAT       0.0492
  34550 WAT        28.1590   22.0940   20.5910 O      34550 WAT       0.0537
  34551 WAT        28.1590   22.0940   20.8410 O      34551 WAT       0.0593
  34552 WAT        28.1590   22.0940   21.0910 O      34552 WAT       0.0596
  34553 WAT        28.1590   22.0940   21.3410 O      34553 WAT       0.0553
  34554 WAT        28.1590   22.0940   21.5910 O      34554 WAT       0.0473
  34555 WAT        28.1590   22.3440   20.5910 O      34555 WAT       0.0476
  34556 WAT        28.1590   22.3440   20.8410 O      34556 WAT       0.0524
  34557 WAT        28.1590   22.3440   21.0910 O      34557 WAT       0.0527
  34558 WAT        28.1590   22.3440   21.3410 O      34558 WAT       0.0496
  34559 WAT        28.1590   22.5940   28.3410 O      34559 WAT       0.0451
  34560 WAT        28.1590   22.8440   28.0910 O      34560 WAT       0.0451
  34561 WAT        28.1590   25.8440    2.8410 O      34561 WAT       0.0466
  34562 WAT        28.1590   26.0940    2.5910 O      34562 WAT       0.0802
  34563 WAT        28.1590   26.0940    2.8410 O      34563 WAT       0.1064
  34564 WAT        28.1590   26.0940    3.0910 O      34564 WAT       0.1012
  34565 WAT        28.1590   26.0940    3.3410 O      34565 WAT       0.0662
  34566 WAT        28.1590   26.3440    2.5910 O      34566 WAT       0.1214
  34567 WAT        28.1590   26.3440    2.8410 O      34567 WAT       0.1769
  34568 WAT        28.1590   26.3440    3.0910 O      34568 WAT       0.1788
  34569 WAT        28.1590   26.3440    3.3410 O      34569 WAT       0.1225
  34570 WAT        28.1590   26.3440    3.5910 O      34570 WAT       0.0561
  34571 WAT        28.1590   26.5940    2.5910 O      34571 WAT       0.1328
  34572 WAT        28.1590   26.5940    2.8410 O      34572 WAT       0.2056
  34573 WAT        28.1590   26.5940    3.0910 O      34573 WAT       0.2165
  34574 WAT        28.1590   26.5940    3.3410 O      34574 WAT       0.1527
  34575 WAT        28.1590   26.5940    3.5910 O      34575 WAT       0.0716
  34576 WAT        28.1590   26.8440    2.5910 O      34576 WAT       0.1012
  34577 WAT        28.1590   26.8440    2.8410 O      34577 WAT       0.1635
  34578 WAT        28.1590   26.8440    3.0910 O      34578 WAT       0.1769
  34579 WAT        28.1590   26.8440    3.3410 O      34579 WAT       0.1270
  34580 WAT        28.1590   26.8440    3.5910 O      34580 WAT       0.0604
  34581 WAT        28.1590   26.8440   15.0910 O      34581 WAT       0.0552
  34582 WAT        28.1590   26.8440   15.3410 O      34582 WAT       0.0557
  34583 WAT        28.1590   27.0940    2.5910 O      34583 WAT       0.0526
  34584 WAT        28.1590   27.0940    2.8410 O      34584 WAT       0.0878
  34585 WAT        28.1590   27.0940    3.0910 O      34585 WAT       0.0967
  34586 WAT        28.1590   27.0940    3.3410 O      34586 WAT       0.0701
  34587 WAT        28.1590   27.0940   14.8410 O      34587 WAT       0.0563
  34588 WAT        28.1590   27.0940   15.0910 O      34588 WAT       0.0769
  34589 WAT        28.1590   27.0940   15.3410 O      34589 WAT       0.0706
  34590 WAT        28.1590   27.0940   15.5910 O      34590 WAT       0.0463
  34591 WAT        28.1590   27.3440   14.8410 O      34591 WAT       0.0772
  34592 WAT        28.1590   27.3440   15.0910 O      34592 WAT       0.0918
  34593 WAT        28.1590   27.3440   15.3410 O      34593 WAT       0.0754
  34594 WAT        28.1590   27.3440   15.5910 O      34594 WAT       0.0456
  34595 WAT        28.1590   27.5940   14.5910 O      34595 WAT       0.0655
  34596 WAT        28.1590   27.5940   14.8410 O      34596 WAT       0.0947
  34597 WAT        28.1590   27.5940   15.0910 O      34597 WAT       0.0962
  34598 WAT        28.1590   27.5940   15.3410 O      34598 WAT       0.0701
  34599 WAT        28.1590   27.8440   14.3410 O      34599 WAT       0.0494
  34600 WAT        28.1590   27.8440   14.5910 O      34600 WAT       0.0850
  34601 WAT        28.1590   27.8440   14.8410 O      34601 WAT       0.1033
  34602 WAT        28.1590   27.8440   15.0910 O      34602 WAT       0.0902
  34603 WAT        28.1590   27.8440   15.3410 O      34603 WAT       0.0595
  34604 WAT        28.1590   28.0940   14.3410 O      34604 WAT       0.0616
  34605 WAT        28.1590   28.0940   14.5910 O      34605 WAT       0.0915
  34606 WAT        28.1590   28.0940   14.8410 O      34606 WAT       0.0972
  34607 WAT        28.1590   28.0940   15.0910 O      34607 WAT       0.0764
  34608 WAT        28.1590   28.0940   15.3410 O      34608 WAT       0.0492
  34609 WAT        28.1590   28.3440   14.3410 O      34609 WAT       0.0588
  34610 WAT        28.1590   28.3440   14.5910 O      34610 WAT       0.0789
  34611 WAT        28.1590   28.3440   14.8410 O      34611 WAT       0.0775
  34612 WAT        28.1590   28.3440   15.0910 O      34612 WAT       0.0598
  34613 WAT        28.1590   28.5940   14.5910 O      34613 WAT       0.0543
  34614 WAT        28.1590   28.5940   14.8410 O      34614 WAT       0.0541
  34615 WAT        28.1590   28.5940   15.0910 O      34615 WAT       0.0467
  34616 WAT        28.1590   29.0940   15.3410 O      34616 WAT       0.0488
  34617 WAT        28.1590   29.0940   15.5910 O      34617 WAT       0.0506
  34618 WAT        28.1590   29.0940   15.8410 O      34618 WAT       0.0466
  34619 WAT        28.1590   29.3440   15.3410 O      34619 WAT       0.0564
  34620 WAT        28.1590   29.3440   15.5910 O      34620 WAT       0.0586
  34621 WAT        28.1590   29.3440   15.8410 O      34621 WAT       0.0519
  34622 WAT        28.1590   29.5940   15.0910 O      34622 WAT       0.0458
  34623 WAT        28.1590   29.5940   15.3410 O      34623 WAT       0.0619
  34624 WAT        28.1590   29.5940   15.5910 O      34624 WAT       0.0646
  34625 WAT        28.1590   29.5940   15.8410 O      34625 WAT       0.0557
  34626 WAT        28.1590   29.8440   15.3410 O      34626 WAT       0.0620
  34627 WAT        28.1590   29.8440   15.5910 O      34627 WAT       0.0655
  34628 WAT        28.1590   29.8440   15.8410 O      34628 WAT       0.0559
  34629 WAT        28.1590   30.0940   15.3410 O      34629 WAT       0.0556
  34630 WAT        28.1590   30.0940   15.5910 O      34630 WAT       0.0603
  34631 WAT        28.1590   30.0940   15.8410 O      34631 WAT       0.0515
  34632 WAT        28.1590   30.3440   15.5910 O      34632 WAT       0.0505
  34633 WAT        28.1590   33.5940   15.3410 O      34633 WAT       0.0452
  34634 WAT        28.1590   33.8440   11.5910 O      34634 WAT       0.0578
  34635 WAT        28.1590   33.8440   11.8410 O      34635 WAT       0.0526
  34636 WAT        28.1590   34.0940   11.3410 O      34636 WAT       0.0611
  34637 WAT        28.1590   34.0940   11.5910 O      34637 WAT       0.0849
  34638 WAT        28.1590   34.0940   11.8410 O      34638 WAT       0.0805
  34639 WAT        28.1590   34.0940   12.0910 O      34639 WAT       0.0570
  34640 WAT        28.1590   34.3440   11.3410 O      34640 WAT       0.0610
  34641 WAT        28.1590   34.3440   11.5910 O      34641 WAT       0.0878
  34642 WAT        28.1590   34.3440   11.8410 O      34642 WAT       0.0879
  34643 WAT        28.1590   34.3440   12.0910 O      34643 WAT       0.0677
  34644 WAT        28.1590   34.3440   12.3410 O      34644 WAT       0.0478
  34645 WAT        28.1590   34.5940   11.5910 O      34645 WAT       0.0658
  34646 WAT        28.1590   34.5940   11.8410 O      34646 WAT       0.0704
  34647 WAT        28.1590   34.5940   12.0910 O      34647 WAT       0.0603
  34648 WAT        28.1590   34.5940   12.3410 O      34648 WAT       0.0485
  34649 WAT        28.4090   15.5940   16.0910 O      34649 WAT       0.0454
  34650 WAT        28.4090   15.5940   16.3410 O      34650 WAT       0.0469
  34651 WAT        28.4090   15.8440   15.8410 O      34651 WAT       0.0458
  34652 WAT        28.4090   15.8440   16.0910 O      34652 WAT       0.0526
  34653 WAT        28.4090   15.8440   16.3410 O      34653 WAT       0.0554
  34654 WAT        28.4090   15.8440   16.5910 O      34654 WAT       0.0525
  34655 WAT        28.4090   16.0940   13.0910 O      34655 WAT       0.0472
  34656 WAT        28.4090   16.0940   13.3410 O      34656 WAT       0.0656
  34657 WAT        28.4090   16.0940   13.5910 O      34657 WAT       0.0804
  34658 WAT        28.4090   16.0940   13.8410 O      34658 WAT       0.0854
  34659 WAT        28.4090   16.0940   14.0910 O      34659 WAT       0.0789
  34660 WAT        28.4090   16.0940   14.3410 O      34660 WAT       0.0647
  34661 WAT        28.4090   16.0940   14.5910 O      34661 WAT       0.0495
  34662 WAT        28.4090   16.0940   15.8410 O      34662 WAT       0.0528
  34663 WAT        28.4090   16.0940   16.0910 O      34663 WAT       0.0609
  34664 WAT        28.4090   16.0940   16.3410 O      34664 WAT       0.0647
  34665 WAT        28.4090   16.0940   16.5910 O      34665 WAT       0.0622
  34666 WAT        28.4090   16.0940   16.8410 O      34666 WAT       0.0535
  34667 WAT        28.4090   16.3440   12.8410 O      34667 WAT       0.0472
  34668 WAT        28.4090   16.3440   13.0910 O      34668 WAT       0.0756
  34669 WAT        28.4090   16.3440   13.3410 O      34669 WAT       0.1096
  34670 WAT        28.4090   16.3440   13.5910 O      34670 WAT       0.1393
  34671 WAT        28.4090   16.3440   13.8410 O      34671 WAT       0.1526
  34672 WAT        28.4090   16.3440   14.0910 O      34672 WAT       0.1437
  34673 WAT        28.4090   16.3440   14.3410 O      34673 WAT       0.1175
  34674 WAT        28.4090   16.3440   14.5910 O      34674 WAT       0.0862
  34675 WAT        28.4090   16.3440   14.8410 O      34675 WAT       0.0608
  34676 WAT        28.4090   16.3440   15.0910 O      34676 WAT       0.0465
  34677 WAT        28.4090   16.3440   15.5910 O      34677 WAT       0.0487
  34678 WAT        28.4090   16.3440   15.8410 O      34678 WAT       0.0577
  34679 WAT        28.4090   16.3440   16.0910 O      34679 WAT       0.0664
  34680 WAT        28.4090   16.3440   16.3410 O      34680 WAT       0.0714
  34681 WAT        28.4090   16.3440   16.5910 O      34681 WAT       0.0698
  34682 WAT        28.4090   16.3440   16.8410 O      34682 WAT       0.0612
  34683 WAT        28.4090   16.3440   17.0910 O      34683 WAT       0.0490
  34684 WAT        28.4090   16.5940   12.8410 O      34684 WAT       0.0563
  34685 WAT        28.4090   16.5940   13.0910 O      34685 WAT       0.0926
  34686 WAT        28.4090   16.5940   13.3410 O      34686 WAT       0.1388
  34687 WAT        28.4090   16.5940   13.5910 O      34687 WAT       0.1828
  34688 WAT        28.4090   16.5940   13.8410 O      34688 WAT       0.2066
  34689 WAT        28.4090   16.5940   14.0910 O      34689 WAT       0.1985
  34690 WAT        28.4090   16.5940   14.3410 O      34690 WAT       0.1631
  34691 WAT        28.4090   16.5940   14.5910 O      34691 WAT       0.1171
  34692 WAT        28.4090   16.5940   14.8410 O      34692 WAT       0.0777
  34693 WAT        28.4090   16.5940   15.0910 O      34693 WAT       0.0536
  34694 WAT        28.4090   16.5940   15.5910 O      34694 WAT       0.0464
  34695 WAT        28.4090   16.5940   15.8410 O      34695 WAT       0.0536
  34696 WAT        28.4090   16.5940   16.0910 O      34696 WAT       0.0622
  34697 WAT        28.4090   16.5940   16.3410 O      34697 WAT       0.0688
  34698 WAT        28.4090   16.5940   16.5910 O      34698 WAT       0.0700
  34699 WAT        28.4090   16.5940   16.8410 O      34699 WAT       0.0641
  34700 WAT        28.4090   16.5940   17.0910 O      34700 WAT       0.0533
  34701 WAT        28.4090   16.8440   10.3410 O      34701 WAT       0.0455
  34702 WAT        28.4090   16.8440   10.5910 O      34702 WAT       0.0461
  34703 WAT        28.4090   16.8440   12.8410 O      34703 WAT       0.0501
  34704 WAT        28.4090   16.8440   13.0910 O      34704 WAT       0.0840
  34705 WAT        28.4090   16.8440   13.3410 O      34705 WAT       0.1297
  34706 WAT        28.4090   16.8440   13.5910 O      34706 WAT       0.1765
  34707 WAT        28.4090   16.8440   13.8410 O      34707 WAT       0.2052
  34708 WAT        28.4090   16.8440   14.0910 O      34708 WAT       0.2007
  34709 WAT        28.4090   16.8440   14.3410 O      34709 WAT       0.1650
  34710 WAT        28.4090   16.8440   14.5910 O      34710 WAT       0.1160
  34711 WAT        28.4090   16.8440   14.8410 O      34711 WAT       0.0734
  34712 WAT        28.4090   16.8440   15.0910 O      34712 WAT       0.0466
  34713 WAT        28.4090   16.8440   16.0910 O      34713 WAT       0.0462
  34714 WAT        28.4090   16.8440   16.3410 O      34714 WAT       0.0541
  34715 WAT        28.4090   16.8440   16.5910 O      34715 WAT       0.0590
  34716 WAT        28.4090   16.8440   16.8410 O      34716 WAT       0.0583
  34717 WAT        28.4090   16.8440   17.0910 O      34717 WAT       0.0521
  34718 WAT        28.4090   17.0940    9.5910 O      34718 WAT       0.0554
  34719 WAT        28.4090   17.0940    9.8410 O      34719 WAT       0.0631
  34720 WAT        28.4090   17.0940   10.0910 O      34720 WAT       0.0660
  34721 WAT        28.4090   17.0940   10.3410 O      34721 WAT       0.0653
  34722 WAT        28.4090   17.0940   10.5910 O      34722 WAT       0.0623
  34723 WAT        28.4090   17.0940   10.8410 O      34723 WAT       0.0572
  34724 WAT        28.4090   17.0940   11.0910 O      34724 WAT       0.0491
  34725 WAT        28.4090   17.0940   13.0910 O      34725 WAT       0.0549
  34726 WAT        28.4090   17.0940   13.3410 O      34726 WAT       0.0872
  34727 WAT        28.4090   17.0940   13.5910 O      34727 WAT       0.1224
  34728 WAT        28.4090   17.0940   13.8410 O      34728 WAT       0.1460
  34729 WAT        28.4090   17.0940   14.0910 O      34729 WAT       0.1444
  34730 WAT        28.4090   17.0940   14.3410 O      34730 WAT       0.1180
  34731 WAT        28.4090   17.0940   14.5910 O      34731 WAT       0.0809
  34732 WAT        28.4090   17.0940   14.8410 O      34732 WAT       0.0487
  34733 WAT        28.4090   17.3440    9.0910 O      34733 WAT       0.0506
  34734 WAT        28.4090   17.3440    9.3410 O      34734 WAT       0.0685
  34735 WAT        28.4090   17.3440    9.5910 O      34735 WAT       0.0827
  34736 WAT        28.4090   17.3440    9.8410 O      34736 WAT       0.0886
  34737 WAT        28.4090   17.3440   10.0910 O      34737 WAT       0.0864
  34738 WAT        28.4090   17.3440   10.3410 O      34738 WAT       0.0793
  34739 WAT        28.4090   17.3440   10.5910 O      34739 WAT       0.0703
  34740 WAT        28.4090   17.3440   10.8410 O      34740 WAT       0.0601
  34741 WAT        28.4090   17.3440   11.0910 O      34741 WAT       0.0482
  34742 WAT        28.4090   17.3440   13.5910 O      34742 WAT       0.0596
  34743 WAT        28.4090   17.3440   13.8410 O      34743 WAT       0.0726
  34744 WAT        28.4090   17.3440   14.0910 O      34744 WAT       0.0722
  34745 WAT        28.4090   17.3440   14.3410 O      34745 WAT       0.0582
  34746 WAT        28.4090   17.5940    8.8410 O      34746 WAT       0.0469
  34747 WAT        28.4090   17.5940    9.0910 O      34747 WAT       0.0687
  34748 WAT        28.4090   17.5940    9.3410 O      34748 WAT       0.0895
  34749 WAT        28.4090   17.5940    9.5910 O      34749 WAT       0.1021
  34750 WAT        28.4090   17.5940    9.8410 O      34750 WAT       0.1025
  34751 WAT        28.4090   17.5940   10.0910 O      34751 WAT       0.0930
  34752 WAT        28.4090   17.5940   10.3410 O      34752 WAT       0.0790
  34753 WAT        28.4090   17.5940   10.5910 O      34753 WAT       0.0644
  34754 WAT        28.4090   17.5940   10.8410 O      34754 WAT       0.0505
  34755 WAT        28.4090   17.8440    8.8410 O      34755 WAT       0.0559
  34756 WAT        28.4090   17.8440    9.0910 O      34756 WAT       0.0781
  34757 WAT        28.4090   17.8440    9.3410 O      34757 WAT       0.0953
  34758 WAT        28.4090   17.8440    9.5910 O      34758 WAT       0.1015
  34759 WAT        28.4090   17.8440    9.8410 O      34759 WAT       0.0950
  34760 WAT        28.4090   17.8440   10.0910 O      34760 WAT       0.0802
  34761 WAT        28.4090   17.8440   10.3410 O      34761 WAT       0.0629
  34762 WAT        28.4090   17.8440   10.5910 O      34762 WAT       0.0468
  34763 WAT        28.4090   18.0940    8.8410 O      34763 WAT       0.0568
  34764 WAT        28.4090   18.0940    9.0910 O      34764 WAT       0.0730
  34765 WAT        28.4090   18.0940    9.3410 O      34765 WAT       0.0818
  34766 WAT        28.4090   18.0940    9.5910 O      34766 WAT       0.0801
  34767 WAT        28.4090   18.0940    9.8410 O      34767 WAT       0.0694
  34768 WAT        28.4090   18.0940   10.0910 O      34768 WAT       0.0542
  34769 WAT        28.4090   18.3440    6.8410 O      34769 WAT       0.0453
  34770 WAT        28.4090   18.3440    7.0910 O      34770 WAT       0.0462
  34771 WAT        28.4090   18.3440    8.8410 O      34771 WAT       0.0482
  34772 WAT        28.4090   18.3440    9.0910 O      34772 WAT       0.0559
  34773 WAT        28.4090   18.3440    9.3410 O      34773 WAT       0.0564
  34774 WAT        28.4090   18.3440    9.5910 O      34774 WAT       0.0500
  34775 WAT        28.4090   18.5940    6.5910 O      34775 WAT       0.0495
  34776 WAT        28.4090   18.5940    6.8410 O      34776 WAT       0.0552
  34777 WAT        28.4090   18.5940    7.0910 O      34777 WAT       0.0569
  34778 WAT        28.4090   18.5940    7.3410 O      34778 WAT       0.0532
  34779 WAT        28.4090   18.5940    7.5910 O      34779 WAT       0.0453
  34780 WAT        28.4090   18.8440    6.3410 O      34780 WAT       0.0467
  34781 WAT        28.4090   18.8440    6.5910 O      34781 WAT       0.0555
  34782 WAT        28.4090   18.8440    6.8410 O      34782 WAT       0.0625
  34783 WAT        28.4090   18.8440    7.0910 O      34783 WAT       0.0653
  34784 WAT        28.4090   18.8440    7.3410 O      34784 WAT       0.0620
  34785 WAT        28.4090   18.8440    7.5910 O      34785 WAT       0.0529
  34786 WAT        28.4090   19.0940    4.3410 O      34786 WAT       0.0457
  34787 WAT        28.4090   19.0940    4.5910 O      34787 WAT       0.0476
  34788 WAT        28.4090   19.0940    4.8410 O      34788 WAT       0.0454
  34789 WAT        28.4090   19.0940    6.5910 O      34789 WAT       0.0543
  34790 WAT        28.4090   19.0940    6.8410 O      34790 WAT       0.0624
  34791 WAT        28.4090   19.0940    7.0910 O      34791 WAT       0.0663
  34792 WAT        28.4090   19.0940    7.3410 O      34792 WAT       0.0639
  34793 WAT        28.4090   19.0940    7.5910 O      34793 WAT       0.0549
  34794 WAT        28.4090   19.3440    6.8410 O      34794 WAT       0.0508
  34795 WAT        28.4090   19.3440    7.0910 O      34795 WAT       0.0553
  34796 WAT        28.4090   19.3440    7.3410 O      34796 WAT       0.0545
  34797 WAT        28.4090   19.3440    7.5910 O      34797 WAT       0.0474
  34798 WAT        28.4090   20.5940   20.5910 O      34798 WAT       0.0454
  34799 WAT        28.4090   20.8440   20.3410 O      34799 WAT       0.0450
  34800 WAT        28.4090   20.8440   20.5910 O      34800 WAT       0.0517
  34801 WAT        28.4090   20.8440   20.8410 O      34801 WAT       0.0507
  34802 WAT        28.4090   21.0940   20.3410 O      34802 WAT       0.0504
  34803 WAT        28.4090   21.0940   20.5910 O      34803 WAT       0.0582
  34804 WAT        28.4090   21.0940   20.8410 O      34804 WAT       0.0570
  34805 WAT        28.4090   21.0940   21.0910 O      34805 WAT       0.0504
  34806 WAT        28.4090   21.3440   20.3410 O      34806 WAT       0.0535
  34807 WAT        28.4090   21.3440   20.5910 O      34807 WAT       0.0620
  34808 WAT        28.4090   21.3440   20.8410 O      34808 WAT       0.0610
  34809 WAT        28.4090   21.3440   21.0910 O      34809 WAT       0.0541
  34810 WAT        28.4090   21.3440   21.3410 O      34810 WAT       0.0451
  34811 WAT        28.4090   21.5940   20.3410 O      34811 WAT       0.0530
  34812 WAT        28.4090   21.5940   20.5910 O      34812 WAT       0.0623
  34813 WAT        28.4090   21.5940   20.8410 O      34813 WAT       0.0621
  34814 WAT        28.4090   21.5940   21.0910 O      34814 WAT       0.0558
  34815 WAT        28.4090   21.5940   21.3410 O      34815 WAT       0.0470
  34816 WAT        28.4090   21.8440   20.3410 O      34816 WAT       0.0499
  34817 WAT        28.4090   21.8440   20.5910 O      34817 WAT       0.0595
  34818 WAT        28.4090   21.8440   20.8410 O      34818 WAT       0.0605
  34819 WAT        28.4090   21.8440   21.0910 O      34819 WAT       0.0553
  34820 WAT        28.4090   21.8440   21.3410 O      34820 WAT       0.0468
  34821 WAT        28.4090   22.0940   20.3410 O      34821 WAT       0.0452
  34822 WAT        28.4090   22.0940   20.5910 O      34822 WAT       0.0544
  34823 WAT        28.4090   22.0940   20.8410 O      34823 WAT       0.0558
  34824 WAT        28.4090   22.0940   21.0910 O      34824 WAT       0.0513
  34825 WAT        28.4090   22.3440   20.5910 O      34825 WAT       0.0476
  34826 WAT        28.4090   22.3440   20.8410 O      34826 WAT       0.0486
  34827 WAT        28.4090   25.8440    2.8410 O      34827 WAT       0.0524
  34828 WAT        28.4090   25.8440    3.0910 O      34828 WAT       0.0473
  34829 WAT        28.4090   26.0940    2.5910 O      34829 WAT       0.0965
  34830 WAT        28.4090   26.0940    2.8410 O      34830 WAT       0.1314
  34831 WAT        28.4090   26.0940    3.0910 O      34831 WAT       0.1293
  34832 WAT        28.4090   26.0940    3.3410 O      34832 WAT       0.0881
  34833 WAT        28.4090   26.3440    2.5910 O      34833 WAT       0.1578
  34834 WAT        28.4090   26.3440    2.8410 O      34834 WAT       0.2338
  34835 WAT        28.4090   26.3440    3.0910 O      34835 WAT       0.2427
  34836 WAT        28.4090   26.3440    3.3410 O      34836 WAT       0.1717
  34837 WAT        28.4090   26.3440    3.5910 O      34837 WAT       0.0818
  34838 WAT        28.4090   26.5940    2.5910 O      34838 WAT       0.1830
  34839 WAT        28.4090   26.5940    2.8410 O      34839 WAT       0.2869
  34840 WAT        28.4090   26.5940    3.0910 O      34840 WAT       0.3087
  34841 WAT        28.4090   26.5940    3.3410 O      34841 WAT       0.2238
  34842 WAT        28.4090   26.5940    3.5910 O      34842 WAT       0.1086
  34843 WAT        28.4090   26.5940   15.0910 O      34843 WAT       0.0478
  34844 WAT        28.4090   26.5940   15.3410 O      34844 WAT       0.0508
  34845 WAT        28.4090   26.8440    2.5910 O      34845 WAT       0.1465
  34846 WAT        28.4090   26.8440    2.8410 O      34846 WAT       0.2389
  34847 WAT        28.4090   26.8440    3.0910 O      34847 WAT       0.2631
  34848 WAT        28.4090   26.8440    3.3410 O      34848 WAT       0.1935
  34849 WAT        28.4090   26.8440    3.5910 O      34849 WAT       0.0947
  34850 WAT        28.4090   26.8440   14.8410 O      34850 WAT       0.0498
  34851 WAT        28.4090   26.8440   15.0910 O      34851 WAT       0.0757
  34852 WAT        28.4090   26.8440   15.3410 O      34852 WAT       0.0757
  34853 WAT        28.4090   26.8440   15.5910 O      34853 WAT       0.0527
  34854 WAT        28.4090   27.0940    2.5910 O      34854 WAT       0.0797
  34855 WAT        28.4090   27.0940    2.8410 O      34855 WAT       0.1336
  34856 WAT        28.4090   27.0940    3.0910 O      34856 WAT       0.1493
  34857 WAT        28.4090   27.0940    3.3410 O      34857 WAT       0.1104
  34858 WAT        28.4090   27.0940    3.5910 O      34858 WAT       0.0539
  34859 WAT        28.4090   27.0940   14.8410 O      34859 WAT       0.0708
  34860 WAT        28.4090   27.0940   15.0910 O      34860 WAT       0.0977
  34861 WAT        28.4090   27.0940   15.3410 O      34861 WAT       0.0901
  34862 WAT        28.4090   27.0940   15.5910 O      34862 WAT       0.0586
  34863 WAT        28.4090   27.3440    2.8410 O      34863 WAT       0.0497
  34864 WAT        28.4090   27.3440    3.0910 O      34864 WAT       0.0560
  34865 WAT        28.4090   27.3440   14.5910 O      34865 WAT       0.0487
  34866 WAT        28.4090   27.3440   14.8410 O      34866 WAT       0.0876
  34867 WAT        28.4090   27.3440   15.0910 O      34867 WAT       0.1067
  34868 WAT        28.4090   27.3440   15.3410 O      34868 WAT       0.0887
  34869 WAT        28.4090   27.3440   15.5910 O      34869 WAT       0.0536
  34870 WAT        28.4090   27.5940   14.5910 O      34870 WAT       0.0653
  34871 WAT        28.4090   27.5940   14.8410 O      34871 WAT       0.0971
  34872 WAT        28.4090   27.5940   15.0910 O      34872 WAT       0.1012
  34873 WAT        28.4090   27.5940   15.3410 O      34873 WAT       0.0747
  34874 WAT        28.4090   27.8440   14.3410 O      34874 WAT       0.0466
  34875 WAT        28.4090   27.8440   14.5910 O      34875 WAT       0.0797
  34876 WAT        28.4090   27.8440   14.8410 O      34876 WAT       0.0974
  34877 WAT        28.4090   27.8440   15.0910 O      34877 WAT       0.0857
  34878 WAT        28.4090   27.8440   15.3410 O      34878 WAT       0.0561
  34879 WAT        28.4090   28.0940   14.3410 O      34879 WAT       0.0587
  34880 WAT        28.4090   28.0940   14.5910 O      34880 WAT       0.0840
  34881 WAT        28.4090   28.0940   14.8410 O      34881 WAT       0.0867
  34882 WAT        28.4090   28.0940   15.0910 O      34882 WAT       0.0661
  34883 WAT        28.4090   28.3440   14.3410 O      34883 WAT       0.0578
  34884 WAT        28.4090   28.3440   14.5910 O      34884 WAT       0.0725
  34885 WAT        28.4090   28.3440   14.8410 O      34885 WAT       0.0667
  34886 WAT        28.4090   28.3440   15.0910 O      34886 WAT       0.0475
  34887 WAT        28.4090   28.5940   14.5910 O      34887 WAT       0.0499
  34888 WAT        28.4090   29.3440   15.3410 O      34888 WAT       0.0461
  34889 WAT        28.4090   29.3440   15.5910 O      34889 WAT       0.0482
  34890 WAT        28.4090   29.5940   15.3410 O      34890 WAT       0.0552
  34891 WAT        28.4090   29.5940   15.5910 O      34891 WAT       0.0577
  34892 WAT        28.4090   29.5940   15.8410 O      34892 WAT       0.0502
  34893 WAT        28.4090   29.8440   15.3410 O      34893 WAT       0.0591
  34894 WAT        28.4090   29.8440   15.5910 O      34894 WAT       0.0623
  34895 WAT        28.4090   29.8440   15.8410 O      34895 WAT       0.0536
  34896 WAT        28.4090   30.0940   15.3410 O      34896 WAT       0.0557
  34897 WAT        28.4090   30.0940   15.5910 O      34897 WAT       0.0600
  34898 WAT        28.4090   30.0940   15.8410 O      34898 WAT       0.0516
  34899 WAT        28.4090   30.3440   15.3410 O      34899 WAT       0.0465
  34900 WAT        28.4090   30.3440   15.5910 O      34900 WAT       0.0519
  34901 WAT        28.4090   30.3440   15.8410 O      34901 WAT       0.0455
  34902 WAT        28.4090   33.8440   11.3410 O      34902 WAT       0.0577
  34903 WAT        28.4090   33.8440   11.5910 O      34903 WAT       0.0775
  34904 WAT        28.4090   33.8440   11.8410 O      34904 WAT       0.0707
  34905 WAT        28.4090   33.8440   12.0910 O      34905 WAT       0.0477
  34906 WAT        28.4090   34.0940   11.3410 O      34906 WAT       0.0757
  34907 WAT        28.4090   34.0940   11.5910 O      34907 WAT       0.1048
  34908 WAT        28.4090   34.0940   11.8410 O      34908 WAT       0.0996
  34909 WAT        28.4090   34.0940   12.0910 O      34909 WAT       0.0717
  34910 WAT        28.4090   34.0940   12.3410 O      34910 WAT       0.0468
  34911 WAT        28.4090   34.3440   11.3410 O      34911 WAT       0.0697
  34912 WAT        28.4090   34.3440   11.5910 O      34912 WAT       0.0998
  34913 WAT        28.4090   34.3440   11.8410 O      34913 WAT       0.0999
  34914 WAT        28.4090   34.3440   12.0910 O      34914 WAT       0.0781
  34915 WAT        28.4090   34.3440   12.3410 O      34915 WAT       0.0572
  34916 WAT        28.4090   34.3440   12.5910 O      34916 WAT       0.0453
  34917 WAT        28.4090   34.5940   11.3410 O      34917 WAT       0.0463
  34918 WAT        28.4090   34.5940   11.5910 O      34918 WAT       0.0690
  34919 WAT        28.4090   34.5940   11.8410 O      34919 WAT       0.0736
  34920 WAT        28.4090   34.5940   12.0910 O      34920 WAT       0.0637
  34921 WAT        28.4090   34.5940   12.3410 O      34921 WAT       0.0530
  34922 WAT        28.4090   34.5940   12.5910 O      34922 WAT       0.0463
  34923 WAT        28.6590   16.0940   16.0910 O      34923 WAT       0.0489
  34924 WAT        28.6590   16.0940   16.3410 O      34924 WAT       0.0512
  34925 WAT        28.6590   16.0940   16.5910 O      34925 WAT       0.0486
  34926 WAT        28.6590   16.3440   13.3410 O      34926 WAT       0.0558
  34927 WAT        28.6590   16.3440   13.5910 O      34927 WAT       0.0742
  34928 WAT        28.6590   16.3440   13.8410 O      34928 WAT       0.0848
  34929 WAT        28.6590   16.3440   14.0910 O      34929 WAT       0.0836
  34930 WAT        28.6590   16.3440   14.3410 O      34930 WAT       0.0719
  34931 WAT        28.6590   16.3440   14.5910 O      34931 WAT       0.0559
  34932 WAT        28.6590   16.3440   15.8410 O      34932 WAT       0.0485
  34933 WAT        28.6590   16.3440   16.0910 O      34933 WAT       0.0553
  34934 WAT        28.6590   16.3440   16.3410 O      34934 WAT       0.0588
  34935 WAT        28.6590   16.3440   16.5910 O      34935 WAT       0.0569
  34936 WAT        28.6590   16.3440   16.8410 O      34936 WAT       0.0496
  34937 WAT        28.6590   16.5940   13.0910 O      34937 WAT       0.0501
  34938 WAT        28.6590   16.5940   13.3410 O      34938 WAT       0.0785
  34939 WAT        28.6590   16.5940   13.5910 O      34939 WAT       0.1077
  34940 WAT        28.6590   16.5940   13.8410 O      34940 WAT       0.1260
  34941 WAT        28.6590   16.5940   14.0910 O      34941 WAT       0.1251
  34942 WAT        28.6590   16.5940   14.3410 O      34942 WAT       0.1063
  34943 WAT        28.6590   16.5940   14.5910 O      34943 WAT       0.0794
  34944 WAT        28.6590   16.5940   14.8410 O      34944 WAT       0.0555
  34945 WAT        28.6590   16.5940   15.8410 O      34945 WAT       0.0464
  34946 WAT        28.6590   16.5940   16.0910 O      34946 WAT       0.0536
  34947 WAT        28.6590   16.5940   16.3410 O      34947 WAT       0.0588
  34948 WAT        28.6590   16.5940   16.5910 O      34948 WAT       0.0593
  34949 WAT        28.6590   16.5940   16.8410 O      34949 WAT       0.0541
  34950 WAT        28.6590   16.8440   13.0910 O      34950 WAT       0.0510
  34951 WAT        28.6590   16.8440   13.3410 O      34951 WAT       0.0821
  34952 WAT        28.6590   16.8440   13.5910 O      34952 WAT       0.1158
  34953 WAT        28.6590   16.8440   13.8410 O      34953 WAT       0.1382
  34954 WAT        28.6590   16.8440   14.0910 O      34954 WAT       0.1379
  34955 WAT        28.6590   16.8440   14.3410 O      34955 WAT       0.1156
  34956 WAT        28.6590   16.8440   14.5910 O      34956 WAT       0.0832
  34957 WAT        28.6590   16.8440   14.8410 O      34957 WAT       0.0545
  34958 WAT        28.6590   16.8440   16.3410 O      34958 WAT       0.0478
  34959 WAT        28.6590   16.8440   16.5910 O      34959 WAT       0.0518
  34960 WAT        28.6590   16.8440   16.8410 O      34960 WAT       0.0508
  34961 WAT        28.6590   16.8440   17.0910 O      34961 WAT       0.0450
  34962 WAT        28.6590   17.0940   10.0910 O      34962 WAT       0.0507
  34963 WAT        28.6590   17.0940   10.3410 O      34963 WAT       0.0537
  34964 WAT        28.6590   17.0940   10.5910 O      34964 WAT       0.0535
  34965 WAT        28.6590   17.0940   10.8410 O      34965 WAT       0.0501
  34966 WAT        28.6590   17.0940   13.3410 O      34966 WAT       0.0620
  34967 WAT        28.6590   17.0940   13.5910 O      34967 WAT       0.0897
  34968 WAT        28.6590   17.0940   13.8410 O      34968 WAT       0.1088
  34969 WAT        28.6590   17.0940   14.0910 O      34969 WAT       0.1086
  34970 WAT        28.6590   17.0940   14.3410 O      34970 WAT       0.0892
  34971 WAT        28.6590   17.0940   14.5910 O      34971 WAT       0.0618
  34972 WAT        28.6590   17.3440    9.5910 O      34972 WAT       0.0565
  34973 WAT        28.6590   17.3440    9.8410 O      34973 WAT       0.0660
  34974 WAT        28.6590   17.3440   10.0910 O      34974 WAT       0.0704
  34975 WAT        28.6590   17.3440   10.3410 O      34975 WAT       0.0698
  34976 WAT        28.6590   17.3440   10.5910 O      34976 WAT       0.0652
  34977 WAT        28.6590   17.3440   10.8410 O      34977 WAT       0.0572
  34978 WAT        28.6590   17.3440   11.0910 O      34978 WAT       0.0461
  34979 WAT        28.6590   17.3440   13.5910 O      34979 WAT       0.0487
  34980 WAT        28.6590   17.3440   13.8410 O      34980 WAT       0.0598
  34981 WAT        28.6590   17.3440   14.0910 O      34981 WAT       0.0594
  34982 WAT        28.6590   17.3440   14.3410 O      34982 WAT       0.0477
  34983 WAT        28.6590   17.5940    9.3410 O      34983 WAT       0.0585
  34984 WAT        28.6590   17.5940    9.5910 O      34984 WAT       0.0722
  34985 WAT        28.6590   17.5940    9.8410 O      34985 WAT       0.0797
  34986 WAT        28.6590   17.5940   10.0910 O      34986 WAT       0.0797
  34987 WAT        28.6590   17.5940   10.3410 O      34987 WAT       0.0736
  34988 WAT        28.6590   17.5940   10.5910 O      34988 WAT       0.0637
  34989 WAT        28.6590   17.5940   10.8410 O      34989 WAT       0.0518
  34990 WAT        28.6590   17.8440    9.0910 O      34990 WAT       0.0480
  34991 WAT        28.6590   17.8440    9.3410 O      34991 WAT       0.0629
  34992 WAT        28.6590   17.8440    9.5910 O      34992 WAT       0.0733
  34993 WAT        28.6590   17.8440    9.8410 O      34993 WAT       0.0758
  34994 WAT        28.6590   17.8440   10.0910 O      34994 WAT       0.0709
  34995 WAT        28.6590   17.8440   10.3410 O      34995 WAT       0.0609
  34996 WAT        28.6590   17.8440   10.5910 O      34996 WAT       0.0486
  34997 WAT        28.6590   18.0940    9.3410 O      34997 WAT       0.0536
  34998 WAT        28.6590   18.0940    9.5910 O      34998 WAT       0.0579
  34999 WAT        28.6590   18.0940    9.8410 O      34999 WAT       0.0558
  35000 WAT        28.6590   18.0940   10.0910 O      35000 WAT       0.0487
  35001 WAT        28.6590   18.5940    7.0910 O      35001 WAT       0.0460
  35002 WAT        28.6590   18.8440    6.8410 O      35002 WAT       0.0499
  35003 WAT        28.6590   18.8440    7.0910 O      35003 WAT       0.0523
  35004 WAT        28.6590   18.8440    7.3410 O      35004 WAT       0.0502
  35005 WAT        28.6590   19.0940    6.8410 O      35005 WAT       0.0489
  35006 WAT        28.6590   19.0940    7.0910 O      35006 WAT       0.0525
  35007 WAT        28.6590   19.0940    7.3410 O      35007 WAT       0.0512
  35008 WAT        28.6590   21.0940   20.5910 O      35008 WAT       0.0468
  35009 WAT        28.6590   21.3440   20.3410 O      35009 WAT       0.0458
  35010 WAT        28.6590   21.3440   20.5910 O      35010 WAT       0.0508
  35011 WAT        28.6590   21.3440   20.8410 O      35011 WAT       0.0473
  35012 WAT        28.6590   21.5940   20.3410 O      35012 WAT       0.0459
  35013 WAT        28.6590   21.5940   20.5910 O      35013 WAT       0.0517
  35014 WAT        28.6590   21.5940   20.8410 O      35014 WAT       0.0487
  35015 WAT        28.6590   21.8440   20.5910 O      35015 WAT       0.0497
  35016 WAT        28.6590   21.8440   20.8410 O      35016 WAT       0.0477
  35017 WAT        28.6590   22.0940   20.5910 O      35017 WAT       0.0453
  35018 WAT        28.6590   26.0940    2.5910 O      35018 WAT       0.0800
  35019 WAT        28.6590   26.0940    2.8410 O      35019 WAT       0.1095
  35020 WAT        28.6590   26.0940    3.0910 O      35020 WAT       0.1101
  35021 WAT        28.6590   26.0940    3.3410 O      35021 WAT       0.0773
  35022 WAT        28.6590   26.3440    2.5910 O      35022 WAT       0.1381
  35023 WAT        28.6590   26.3440    2.8410 O      35023 WAT       0.2051
  35024 WAT        28.6590   26.3440    3.0910 O      35024 WAT       0.2168
  35025 WAT        28.6590   26.3440    3.3410 O      35025 WAT       0.1575
  35026 WAT        28.6590   26.3440    3.5910 O      35026 WAT       0.0775
  35027 WAT        28.6590   26.5940    2.5910 O      35027 WAT       0.1674
  35028 WAT        28.6590   26.5940    2.8410 O      35028 WAT       0.2630
  35029 WAT        28.6590   26.5940    3.0910 O      35029 WAT       0.2872
  35030 WAT        28.6590   26.5940    3.3410 O      35030 WAT       0.2130
  35031 WAT        28.6590   26.5940    3.5910 O      35031 WAT       0.1063
  35032 WAT        28.6590   26.5940   15.0910 O      35032 WAT       0.0496
  35033 WAT        28.6590   26.5940   15.3410 O      35033 WAT       0.0518
  35034 WAT        28.6590   26.8440    2.5910 O      35034 WAT       0.1392
  35035 WAT        28.6590   26.8440    2.8410 O      35035 WAT       0.2274
  35036 WAT        28.6590   26.8440    3.0910 O      35036 WAT       0.2535
  35037 WAT        28.6590   26.8440    3.3410 O      35037 WAT       0.1900
  35038 WAT        28.6590   26.8440    3.5910 O      35038 WAT       0.0952
  35039 WAT        28.6590   26.8440   14.8410 O      35039 WAT       0.0497
  35040 WAT        28.6590   26.8440   15.0910 O      35040 WAT       0.0751
  35041 WAT        28.6590   26.8440   15.3410 O      35041 WAT       0.0745
  35042 WAT        28.6590   26.8440   15.5910 O      35042 WAT       0.0511
  35043 WAT        28.6590   27.0940    2.5910 O      35043 WAT       0.0782
  35044 WAT        28.6590   27.0940    2.8410 O      35044 WAT       0.1314
  35045 WAT        28.6590   27.0940    3.0910 O      35045 WAT       0.1482
  35046 WAT        28.6590   27.0940    3.3410 O      35046 WAT       0.1113
  35047 WAT        28.6590   27.0940    3.5910 O      35047 WAT       0.0554
  35048 WAT        28.6590   27.0940   14.8410 O      35048 WAT       0.0664
  35049 WAT        28.6590   27.0940   15.0910 O      35049 WAT       0.0919
  35050 WAT        28.6590   27.0940   15.3410 O      35050 WAT       0.0846
  35051 WAT        28.6590   27.0940   15.5910 O      35051 WAT       0.0547
  35052 WAT        28.6590   27.3440    2.8410 O      35052 WAT       0.0502
  35053 WAT        28.6590   27.3440    3.0910 O      35053 WAT       0.0570
  35054 WAT        28.6590   27.3440   14.8410 O      35054 WAT       0.0768
  35055 WAT        28.6590   27.3440   15.0910 O      35055 WAT       0.0945
  35056 WAT        28.6590   27.3440   15.3410 O      35056 WAT       0.0789
  35057 WAT        28.6590   27.3440   15.5910 O      35057 WAT       0.0476
  35058 WAT        28.6590   27.5940   14.5910 O      35058 WAT       0.0526
  35059 WAT        28.6590   27.5940   14.8410 O      35059 WAT       0.0795
  35060 WAT        28.6590   27.5940   15.0910 O      35060 WAT       0.0840
  35061 WAT        28.6590   27.5940   15.3410 O      35061 WAT       0.0624
  35062 WAT        28.6590   27.8440   14.5910 O      35062 WAT       0.0615
  35063 WAT        28.6590   27.8440   14.8410 O      35063 WAT       0.0750
  35064 WAT        28.6590   27.8440   15.0910 O      35064 WAT       0.0663
  35065 WAT        28.6590   28.0940   14.3410 O      35065 WAT       0.0472
  35066 WAT        28.6590   28.0940   14.5910 O      35066 WAT       0.0643
  35067 WAT        28.6590   28.0940   14.8410 O      35067 WAT       0.0643
  35068 WAT        28.6590   28.0940   15.0910 O      35068 WAT       0.0478
  35069 WAT        28.6590   28.3440   14.3410 O      35069 WAT       0.0481
  35070 WAT        28.6590   28.3440   14.5910 O      35070 WAT       0.0563
  35071 WAT        28.6590   28.3440   14.8410 O      35071 WAT       0.0485
  35072 WAT        28.6590   29.8440   15.3410 O      35072 WAT       0.0474
  35073 WAT        28.6590   29.8440   15.5910 O      35073 WAT       0.0494
  35074 WAT        28.6590   30.0940   15.3410 O      35074 WAT       0.0464
  35075 WAT        28.6590   30.0940   15.5910 O      35075 WAT       0.0494
  35076 WAT        28.6590   33.8440   11.3410 O      35076 WAT       0.0607
  35077 WAT        28.6590   33.8440   11.5910 O      35077 WAT       0.0807
  35078 WAT        28.6590   33.8440   11.8410 O      35078 WAT       0.0734
  35079 WAT        28.6590   33.8440   12.0910 O      35079 WAT       0.0502
  35080 WAT        28.6590   34.0940   11.3410 O      35080 WAT       0.0741
  35081 WAT        28.6590   34.0940   11.5910 O      35081 WAT       0.1014
  35082 WAT        28.6590   34.0940   11.8410 O      35082 WAT       0.0960
  35083 WAT        28.6590   34.0940   12.0910 O      35083 WAT       0.0699
  35084 WAT        28.6590   34.0940   12.3410 O      35084 WAT       0.0472
  35085 WAT        28.6590   34.3440   11.3410 O      35085 WAT       0.0634
  35086 WAT        28.6590   34.3440   11.5910 O      35086 WAT       0.0897
  35087 WAT        28.6590   34.3440   11.8410 O      35087 WAT       0.0892
  35088 WAT        28.6590   34.3440   12.0910 O      35088 WAT       0.0705
  35089 WAT        28.6590   34.3440   12.3410 O      35089 WAT       0.0533
  35090 WAT        28.6590   34.5940   11.5910 O      35090 WAT       0.0575
  35091 WAT        28.6590   34.5940   11.8410 O      35091 WAT       0.0607
  35092 WAT        28.6590   34.5940   12.0910 O      35092 WAT       0.0531
  35093 WAT        28.6590   34.5940   12.3410 O      35093 WAT       0.0457
  35094 WAT        28.9090   16.5940   13.5910 O      35094 WAT       0.0477
  35095 WAT        28.9090   16.5940   13.8410 O      35095 WAT       0.0569
  35096 WAT        28.9090   16.5940   14.0910 O      35096 WAT       0.0577
  35097 WAT        28.9090   16.5940   14.3410 O      35097 WAT       0.0504
  35098 WAT        28.9090   16.8440   13.5910 O      35098 WAT       0.0561
  35099 WAT        28.9090   16.8440   13.8410 O      35099 WAT       0.0678
  35100 WAT        28.9090   16.8440   14.0910 O      35100 WAT       0.0683
  35101 WAT        28.9090   16.8440   14.3410 O      35101 WAT       0.0581
  35102 WAT        28.9090   17.0940   13.5910 O      35102 WAT       0.0474
  35103 WAT        28.9090   17.0940   13.8410 O      35103 WAT       0.0579
  35104 WAT        28.9090   17.0940   14.0910 O      35104 WAT       0.0579
  35105 WAT        28.9090   17.0940   14.3410 O      35105 WAT       0.0478
  35106 WAT        28.9090   17.5940   10.0910 O      35106 WAT       0.0474
  35107 WAT        28.9090   17.5940   10.3410 O      35107 WAT       0.0468
  35108 WAT        28.9090   26.0940    2.8410 O      35108 WAT       0.0605
  35109 WAT        28.9090   26.0940    3.0910 O      35109 WAT       0.0615
  35110 WAT        28.9090   26.3440    2.5910 O      35110 WAT       0.0803
  35111 WAT        28.9090   26.3440    2.8410 O      35111 WAT       0.1181
  35112 WAT        28.9090   26.3440    3.0910 O      35112 WAT       0.1261
  35113 WAT        28.9090   26.3440    3.3410 O      35113 WAT       0.0935
  35114 WAT        28.9090   26.3440    3.5910 O      35114 WAT       0.0471
  35115 WAT        28.9090   26.5940    2.5910 O      35115 WAT       0.1004
  35116 WAT        28.9090   26.5940    2.8410 O      35116 WAT       0.1567
  35117 WAT        28.9090   26.5940    3.0910 O      35117 WAT       0.1727
  35118 WAT        28.9090   26.5940    3.3410 O      35118 WAT       0.1303
  35119 WAT        28.9090   26.5940    3.5910 O      35119 WAT       0.0664
  35120 WAT        28.9090   26.8440    2.5910 O      35120 WAT       0.0859
  35121 WAT        28.9090   26.8440    2.8410 O      35121 WAT       0.1397
  35122 WAT        28.9090   26.8440    3.0910 O      35122 WAT       0.1568
  35123 WAT        28.9090   26.8440    3.3410 O      35123 WAT       0.1192
  35124 WAT        28.9090   26.8440    3.5910 O      35124 WAT       0.0608
  35125 WAT        28.9090   26.8440   15.0910 O      35125 WAT       0.0519
  35126 WAT        28.9090   26.8440   15.3410 O      35126 WAT       0.0511
  35127 WAT        28.9090   27.0940    2.5910 O      35127 WAT       0.0494
  35128 WAT        28.9090   27.0940    2.8410 O      35128 WAT       0.0828
  35129 WAT        28.9090   27.0940    3.0910 O      35129 WAT       0.0938
  35130 WAT        28.9090   27.0940    3.3410 O      35130 WAT       0.0712
  35131 WAT        28.9090   27.0940   15.0910 O      35131 WAT       0.0613
  35132 WAT        28.9090   27.0940   15.3410 O      35132 WAT       0.0562
  35133 WAT        28.9090   27.3440   14.8410 O      35133 WAT       0.0492
  35134 WAT        28.9090   27.3440   15.0910 O      35134 WAT       0.0606
  35135 WAT        28.9090   27.3440   15.3410 O      35135 WAT       0.0506
  35136 WAT        28.9090   27.5940   14.8410 O      35136 WAT       0.0489
  35137 WAT        28.9090   27.5940   15.0910 O      35137 WAT       0.0519
  35138 WAT        28.9090   33.8440   11.3410 O      35138 WAT       0.0456
  35139 WAT        28.9090   33.8440   11.5910 O      35139 WAT       0.0598
  35140 WAT        28.9090   33.8440   11.8410 O      35140 WAT       0.0541
  35141 WAT        28.9090   34.0940   11.3410 O      35141 WAT       0.0526
  35142 WAT        28.9090   34.0940   11.5910 O      35142 WAT       0.0711
  35143 WAT        28.9090   34.0940   11.8410 O      35143 WAT       0.0669
  35144 WAT        28.9090   34.0940   12.0910 O      35144 WAT       0.0491
  35145 WAT        28.9090   34.3440   11.5910 O      35145 WAT       0.0592
  35146 WAT        28.9090   34.3440   11.8410 O      35146 WAT       0.0585
  35147 WAT        28.9090   34.3440   12.0910 O      35147 WAT       0.0465
