@<TRIPOS>MOLECULE
****
  152     0     0     0     0
SMALL
USER_CHARGES


@<TRIPOS>ATOM
      1 WAT        18.4090   21.0940   16.5910 O          1 WAT         3.7534  5.84
      2 WAT         8.9090   22.0940   16.8410 O          2 WAT         6.7134  5.63
      3 WAT         7.6590   24.0940   18.3410 O          3 WAT         8.8193  5.65
      4 WAT        20.9090   33.8440   10.8410 O          4 WAT         6.9700  4.20
      5 WAT        22.6590   15.8440   20.0910 O          5 WAT         5.0064  3.48
      6 WAT         9.4090   16.3440   27.0910 O          6 WAT         7.3023  4.41
      7 WAT        21.1590   28.0940   18.3410 O          7 WAT         4.3026  3.37
      8 WAT        18.6590   31.0940   21.8410 O          8 WAT         7.0915  2.37
      9 WAT        23.4090   28.5940   26.5910 O          9 WAT         4.4084  3.05
     10 WAT         1.6590   28.0940   18.3410 O         10 WAT         4.8925  4.71
     11 WAT         9.1590   25.3440    7.3410 O         11 WAT         2.3502  2.04
     12 WAT         1.6590   34.5940   28.8410 O         12 WAT         1.2402  2.44
     13 WAT        10.6590   16.5940   19.5910 O         13 WAT         3.4383  2.97
     14 WAT        11.9090   15.8440   17.0910 O         14 WAT         2.9900  3.61
     15 WAT        21.6590    8.8440   19.8410 O         15 WAT         2.6520  2.18
     16 WAT        17.6590   16.8440   10.3410 O         16 WAT         3.9066  3.22
     17 WAT        20.6590   28.8440   21.0910 O         17 WAT         0.7480  2.41
     18 WAT         7.4090   15.5940   25.5910 O         18 WAT         0.0598  3.69
     19 WAT        22.4090   10.0940   27.8410 O         19 WAT         0.3534  3.07
     20 WAT        23.4090   27.0940   28.8410 O         20 WAT         0.5193  2.51
     21 WAT        24.1590   14.5940   28.3410 O         21 WAT         1.8339  1.89
     22 WAT        24.1590   28.5940   16.0910 O         22 WAT        -1.0297  2.14
     23 WAT        25.4090   19.3440   27.0910 O         23 WAT         0.5910  3.49
     24 WAT        25.9090   26.5940   16.3410 O         24 WAT         1.8763  1.85
     25 WAT         1.6590   21.8440   16.0910 O         25 WAT         2.5154  2.11
     26 WAT        25.4090   33.5940   12.0910 O         26 WAT         3.8605  2.24
     27 WAT        23.1590   26.3440   18.0910 O         27 WAT        -0.1206  2.13
     28 WAT         8.1590   14.5940   19.8410 O         28 WAT        -2.0652  2.86
     29 WAT        25.9090   19.5940    6.0910 O         29 WAT         1.6177  1.60
     30 WAT         4.4090   16.5940   29.0910 O         30 WAT         1.7792  2.41
     31 WAT        19.6590   18.3440    8.5910 O         31 WAT         1.5879  4.13
     32 WAT        26.1590   31.0940   15.3410 O         32 WAT        -1.7359  2.45
     33 WAT        22.9090   34.8440   12.5910 O         33 WAT         0.1890  3.82
     34 WAT        19.9090   10.8440   12.0910 O         34 WAT         2.0713  1.48
     35 WAT         3.6590   10.5940   28.3410 O         35 WAT        -0.3108  2.03
     36 WAT        21.4090   34.5940   28.8410 O         36 WAT         2.5272  2.36
     37 WAT         4.9090   21.3440   11.5910 O         37 WAT         1.8695  1.80
     38 WAT        25.1590   16.3440   26.5910 O         38 WAT         1.4507  1.85
     39 WAT        28.1590   16.5940   13.8410 O         39 WAT         1.6429  1.53
     40 WAT        15.1590   15.3440    9.0910 O         40 WAT         0.2393  2.59
     41 WAT        24.6590   11.8440   27.3410 O         41 WAT         0.6112  1.32
     42 WAT         8.1590   16.0940   17.5910 O         42 WAT        -1.1135  2.04
     43 WAT        25.1590   21.8440    3.3410 O         43 WAT         0.4924  2.36
     44 WAT         6.6590   24.0940    8.0910 O         44 WAT         0.1084  1.48
     45 WAT         4.6590   15.3440   26.3410 O         45 WAT        -0.7524  1.41
     46 WAT        25.4090   29.8440   18.3410 O         46 WAT        -1.1908  2.06
     47 WAT         1.6590   34.3440    9.3410 O         47 WAT         2.6243  1.66
     48 WAT         7.4090   12.8440   24.5910 O         48 WAT         4.5268  2.01
     49 WAT        25.4090   22.5940   27.8410 O         49 WAT        -0.0455  3.88
     50 WAT         5.4090   17.3440   23.0910 O         50 WAT        -2.1934  1.44
     51 WAT        22.4090   26.3440   21.0910 O         51 WAT         4.4634  2.08
     52 WAT        26.1590   22.0940   19.3410 O         52 WAT         1.3659  1.10
     53 WAT         2.4090   19.8440   20.0910 O         53 WAT         1.2271  1.89
     54 WAT        25.4090   19.5940   18.5910 O         54 WAT         0.7845  1.41
     55 WAT         7.1590   26.5940    3.3410 O         55 WAT         1.6991  1.69
     56 WAT        15.6590   20.8440    3.5910 O         56 WAT         0.6985  2.15
     57 WAT         1.6590   31.0940   14.8410 O         57 WAT         4.2600  2.48
     58 WAT        25.1590   32.5940   21.0910 O         58 WAT        -0.3547  1.70
     59 WAT         6.1590   16.5940   12.8410 O         59 WAT         0.5798  1.82
     60 WAT         3.1590   22.8440    8.3410 O         60 WAT        -1.5688  1.57
     61 WAT        24.6590   25.8440   22.8410 O         61 WAT        -0.0541  1.89
     62 WAT        13.6590    9.3440   12.0910 O         62 WAT         2.2728  1.31
     63 WAT        12.9090   22.0940    4.0910 O         63 WAT         2.2830  2.95
     64 WAT        23.1590   34.8440   15.8410 O         64 WAT        -0.8414  2.60
     65 WAT         2.6590   29.8440    4.5910 O         65 WAT         2.2922  1.70
     66 WAT         2.4090   19.0940   29.0910 O         66 WAT         0.3701  2.32
     67 WAT         4.4090   19.5940   22.8410 O         67 WAT         1.2651  1.42
     68 WAT        23.1590   34.8440   25.3410 O         68 WAT         1.7144  1.91
     69 WAT         4.4090   24.0940    5.0910 O         69 WAT        -0.8804  2.24
     70 WAT        20.1590    8.5940   14.8410 O         70 WAT         2.9396  2.34
     71 WAT        25.1590   30.5940   27.0910 O         71 WAT         0.5497  1.23
     72 WAT        24.9090   17.5940   19.5910 O         72 WAT         0.1901  1.05
     73 WAT        25.6590   16.5940   22.3410 O         73 WAT         2.0289  1.25
     74 WAT        24.4090   14.0940   18.8410 O         74 WAT         1.5239  1.07
     75 WAT        25.4090   25.3440   28.0910 O         75 WAT        -0.1135  1.13
     76 WAT        10.1590   23.8440    5.0910 O         76 WAT        -0.3305  1.42
     77 WAT        22.6590   11.5940   15.3410 O         77 WAT         1.4546  1.69
     78 WAT        28.4090   26.5940    3.0910 O         78 WAT         7.8238  3.95
     79 WAT        10.6590   14.0940   15.8410 O         79 WAT         0.5012  1.84
     80 WAT        24.9090   16.3440   10.0910 O         80 WAT         1.6845  1.84
     81 WAT        26.9090   25.0940   18.3410 O         81 WAT         1.3998  0.96
     82 WAT        23.9090   17.5940    6.0910 O         82 WAT         1.0685  1.12
     83 WAT         9.9090   18.8440    7.3410 O         83 WAT         1.6893  1.29
     84 WAT        25.4090   14.8440   12.5910 O         84 WAT         0.8993  1.68
     85 WAT         4.6590   12.0940   25.5910 O         85 WAT         1.1179  1.27
     86 WAT        23.1590   12.5940   13.0910 O         86 WAT         1.0132  1.46
     87 WAT         6.1590   14.8440   21.5910 O         87 WAT        -0.5298  2.27
     88 WAT         9.6590   12.3440   18.0910 O         88 WAT         0.1527  1.34
     89 WAT         3.1590   17.0940   24.5910 O         89 WAT        -0.1990  1.02
     90 WAT        24.1590   23.8440   19.8410 O         90 WAT         4.1389  1.99
     91 WAT        25.9090   24.3440   24.5910 O         91 WAT         0.5117  1.75
     92 WAT        23.9090   10.5940   19.5910 O         92 WAT         1.9424  1.24
     93 WAT        24.4090   12.3440   17.0910 O         93 WAT         0.5971  1.14
     94 WAT        22.1590    9.0940   16.8410 O         94 WAT         1.6349  1.32
     95 WAT        24.6590   34.0940   16.3410 O         95 WAT        -2.7319  1.70
     96 WAT         9.9090   14.5940   13.0910 O         96 WAT         2.4003  1.18
     97 WAT         2.4090   21.5940   23.8410 O         97 WAT         4.3848  1.04
     98 WAT        27.4090   17.8440   18.8410 O         98 WAT         0.2397  1.10
     99 WAT        27.6590   20.0940   25.5910 O         99 WAT         0.2960  1.49
    100 WAT         3.9090   17.5940   20.5910 O        100 WAT         0.4440  1.43
    101 WAT        28.1590   17.5940    9.3410 O        101 WAT         1.3011  1.59
    102 WAT        17.1590   18.0940    5.5910 O        102 WAT         2.1923  1.30
    103 WAT        11.6590   19.8440    4.3410 O        103 WAT         0.3471  1.29
    104 WAT        24.9090   33.5940   23.5910 O        104 WAT         0.9782  1.47
    105 WAT         6.1590   10.3440   23.5910 O        105 WAT         1.9514  1.91
    106 WAT         4.6590   17.5940   18.0910 O        106 WAT         1.2983  1.26
    107 WAT        23.6590   34.3440   27.5910 O        107 WAT         0.0195  1.25
    108 WAT         9.4090   21.8440    6.0910 O        108 WAT         0.0890  1.41
    109 WAT        25.6590   27.0940   20.0910 O        109 WAT         1.0608  1.05
    110 WAT         4.1590    9.0940   25.8410 O        110 WAT         1.6701  1.46
    111 WAT        25.6590   32.8440   15.5910 O        111 WAT        -1.4453  2.05
    112 WAT         1.6590   28.3440    6.3410 O        112 WAT        -0.2785  1.84
    113 WAT         2.9090   19.0940   16.3410 O        113 WAT         2.1278  1.33
    114 WAT        23.1590   23.0940   29.0910 O        114 WAT        -0.6870  2.75
    115 WAT         2.6590   21.0940   13.0910 O        115 WAT         1.8495  1.22
    116 WAT        28.1590   27.8440   15.0910 O        116 WAT         0.1576  1.45
    117 WAT         7.6590   24.3440    4.5910 O        117 WAT         0.0258  0.99
    118 WAT         7.6590   15.3440   14.5910 O        118 WAT         1.1400  1.21
    119 WAT        11.4090    9.0940   14.3410 O        119 WAT         1.3570  0.96
    120 WAT         3.1590   14.3440   28.3410 O        120 WAT         0.3770  1.16
    121 WAT        10.9090   11.3440   16.0910 O        121 WAT         1.6964  1.97
    122 WAT        26.6590   15.3440   24.5910 O        122 WAT         0.7354  0.98
    123 WAT         6.6590    9.5940   20.8410 O        123 WAT         1.1099  1.28
    124 WAT        18.9090   12.0940    9.5910 O        124 WAT         0.3814  0.87
    125 WAT        27.4090   18.5940   22.8410 O        125 WAT         0.7300  1.09
    126 WAT        17.4090   14.0940    9.0910 O        126 WAT        -0.1736  1.10
    127 WAT        26.9090   17.5940   28.5910 O        127 WAT         0.7964  1.07
    128 WAT        21.4090    8.5940   23.3410 O        128 WAT         0.0991  1.82
    129 WAT        20.1590    8.8440   26.8410 O        129 WAT         2.1466  1.28
    130 WAT        22.6590   15.5940    8.8410 O        130 WAT         1.0116  1.28
    131 WAT        27.9090   18.8440    6.8410 O        131 WAT         1.0344  0.89
    132 WAT         7.4090   19.5940    8.8410 O        132 WAT         1.4214  1.04
    133 WAT         5.6590   17.3440   11.3410 O        133 WAT         0.8745  1.50
    134 WAT         5.9090   16.3440   18.5910 O        134 WAT        -0.6227  1.40
    135 WAT        26.4090   24.5940    2.8410 O        135 WAT         1.7596  1.65
    136 WAT        13.9090   14.5940    8.3410 O        136 WAT         0.5431  1.68
    137 WAT        26.1590   19.5940    3.3410 O        137 WAT        -0.5527  0.84
    138 WAT        28.1590   21.5940   20.8410 O        138 WAT         0.5412  1.03
    139 WAT         7.6590    9.8440   19.3410 O        139 WAT         1.3091  1.08
    140 WAT         9.9090   13.5940   10.8410 O        140 WAT         1.1177  1.05
    141 WAT         9.6590   23.3440    3.3410 O        141 WAT        -1.6997  1.65
    142 WAT        21.4090   16.8440    7.0910 O        142 WAT         0.5337  1.32
    143 WAT        20.1590   16.8440    9.3410 O        143 WAT        -0.7394  2.10
    144 WAT         1.9090   18.0940   26.5910 O        144 WAT         1.2863  0.96
    145 WAT         2.1590   21.8440   10.5910 O        145 WAT         0.4761  1.20
    146 WAT        11.9090   23.3440    5.0910 O        146 WAT         4.7396  2.44
    147 WAT        12.1590   16.0940    6.5910 O        147 WAT         0.8542  0.76
    148 WAT         6.9090   21.8440    9.5910 O        148 WAT         2.3560  1.04
    149 WAT         2.1590   20.3440   18.5910 O        149 WAT         2.3478  1.72
    150 WAT        27.9090   29.3440   15.5910 O        150 WAT         1.3257  1.06
    151 WAT        27.1590   12.8440   25.5910 O        151 WAT         0.7532  0.90
    152 WAT        23.6590    9.8440   18.0910 O        152 WAT         0.6667  1.17
