@<TRIPOS>MOLECULE
****
 1843     0     0   0     0
SMALL
USER_CHARGES


@<TRIPOS>ATOM
      0 WAT       -36.6820  -73.9160   -6.0830 O         0 WAT       0.0554
      1 WAT       -36.6820  -73.9160   -5.8330 O         1 WAT       0.0688
      2 WAT       -36.6820  -73.9160   -5.5830 O         2 WAT       0.0631
      3 WAT       -36.6820  -73.9160   -5.3330 O         3 WAT       0.0470
      4 WAT       -36.6820  -73.6660   -6.0830 O         4 WAT       0.0667
      5 WAT       -36.6820  -73.6660   -5.8330 O         5 WAT       0.0809
      6 WAT       -36.6820  -73.6660   -5.5830 O         6 WAT       0.0707
      7 WAT       -36.6820  -73.6660   -5.3330 O         7 WAT       0.0476
      8 WAT       -36.6820  -73.4160   -6.0830 O         8 WAT       0.0561
      9 WAT       -36.6820  -73.4160   -5.8330 O         9 WAT       0.0675
     10 WAT       -36.6820  -73.4160   -5.5830 O        10 WAT       0.0571
     11 WAT       -36.4320  -74.1660   -6.0830 O        11 WAT       0.0712
     12 WAT       -36.4320  -74.1660   -5.8330 O        12 WAT       0.0878
     13 WAT       -36.4320  -74.1660   -5.5830 O        13 WAT       0.0840
     14 WAT       -36.4320  -74.1660   -5.3330 O        14 WAT       0.0701
     15 WAT       -36.4320  -74.1660   -5.0830 O        15 WAT       0.0582
     16 WAT       -36.4320  -74.1660   -4.8330 O        16 WAT       0.0497
     17 WAT       -36.4320  -73.9160   -6.3330 O        17 WAT       0.0699
     18 WAT       -36.4320  -73.9160   -6.0830 O        18 WAT       0.1153
     19 WAT       -36.4320  -73.9160   -5.8330 O        19 WAT       0.1368
     20 WAT       -36.4320  -73.9160   -5.5830 O        20 WAT       0.1223
     21 WAT       -36.4320  -73.9160   -5.3330 O        21 WAT       0.0912
     22 WAT       -36.4320  -73.9160   -5.0830 O        22 WAT       0.0658
     23 WAT       -36.4320  -73.9160   -4.8330 O        23 WAT       0.0499
     24 WAT       -36.4320  -73.6660   -6.3330 O        24 WAT       0.0831
     25 WAT       -36.4320  -73.6660   -6.0830 O        25 WAT       0.1353
     26 WAT       -36.4320  -73.6660   -5.8330 O        26 WAT       0.1570
     27 WAT       -36.4320  -73.6660   -5.5830 O        27 WAT       0.1339
     28 WAT       -36.4320  -73.6660   -5.3330 O        28 WAT       0.0912
     29 WAT       -36.4320  -73.6660   -5.0830 O        29 WAT       0.0575
     30 WAT       -36.4320  -73.4160   -6.3330 O        30 WAT       0.0697
     31 WAT       -36.4320  -73.4160   -6.0830 O        31 WAT       0.1131
     32 WAT       -36.4320  -73.4160   -5.8330 O        32 WAT       0.1298
     33 WAT       -36.4320  -73.4160   -5.5830 O        33 WAT       0.1072
     34 WAT       -36.4320  -73.4160   -5.3330 O        34 WAT       0.0680
     35 WAT       -36.4320  -73.1660   -6.0830 O        35 WAT       0.0668
     36 WAT       -36.4320  -73.1660   -5.8330 O        36 WAT       0.0763
     37 WAT       -36.4320  -73.1660   -5.5830 O        37 WAT       0.0616
     38 WAT       -36.1820  -74.4160   -6.0830 O        38 WAT       0.0527
     39 WAT       -36.1820  -74.4160   -5.8330 O        39 WAT       0.0661
     40 WAT       -36.1820  -74.4160   -5.5830 O        40 WAT       0.0669
     41 WAT       -36.1820  -74.4160   -5.3330 O        41 WAT       0.0610
     42 WAT       -36.1820  -74.4160   -5.0830 O        42 WAT       0.0553
     43 WAT       -36.1820  -74.4160   -4.8330 O        43 WAT       0.0498
     44 WAT       -36.1820  -74.4160   -3.5830 O        44 WAT       0.0464
     45 WAT       -36.1820  -74.1660   -6.3330 O        45 WAT       0.0669
     46 WAT       -36.1820  -74.1660   -6.0830 O        46 WAT       0.1077
     47 WAT       -36.1820  -74.1660   -5.8330 O        47 WAT       0.1285
     48 WAT       -36.1820  -74.1660   -5.5830 O        48 WAT       0.1210
     49 WAT       -36.1820  -74.1660   -5.3330 O        49 WAT       0.1008
     50 WAT       -36.1820  -74.1660   -5.0830 O        50 WAT       0.0839
     51 WAT       -36.1820  -74.1660   -4.8330 O        51 WAT       0.0714
     52 WAT       -36.1820  -74.1660   -4.5830 O        52 WAT       0.0605
     53 WAT       -36.1820  -74.1660   -4.3330 O        53 WAT       0.0521
     54 WAT       -36.1820  -74.1660   -4.0830 O        54 WAT       0.0494
     55 WAT       -36.1820  -74.1660   -3.8330 O        55 WAT       0.0518
     56 WAT       -36.1820  -74.1660   -3.5830 O        56 WAT       0.0538
     57 WAT       -36.1820  -74.1660   -3.3330 O        57 WAT       0.0469
     58 WAT       -36.1820  -73.9160   -6.5830 O        58 WAT       0.0497
     59 WAT       -36.1820  -73.9160   -6.3330 O        59 WAT       0.1062
     60 WAT       -36.1820  -73.9160   -6.0830 O        60 WAT       0.1659
     61 WAT       -36.1820  -73.9160   -5.8330 O        61 WAT       0.1910
     62 WAT       -36.1820  -73.9160   -5.5830 O        62 WAT       0.1696
     63 WAT       -36.1820  -73.9160   -5.3330 O        63 WAT       0.1298
     64 WAT       -36.1820  -73.9160   -5.0830 O        64 WAT       0.0989
     65 WAT       -36.1820  -73.9160   -4.8330 O        65 WAT       0.0796
     66 WAT       -36.1820  -73.9160   -4.5830 O        66 WAT       0.0651
     67 WAT       -36.1820  -73.9160   -4.3330 O        67 WAT       0.0536
     68 WAT       -36.1820  -73.9160   -4.0830 O        68 WAT       0.0474
     69 WAT       -36.1820  -73.9160   -3.8330 O        69 WAT       0.0466
     70 WAT       -36.1820  -73.9160   -3.5830 O        70 WAT       0.0469
     71 WAT       -36.1820  -73.6660   -6.5830 O        71 WAT       0.0600
     72 WAT       -36.1820  -73.6660   -6.3330 O        72 WAT       0.1236
     73 WAT       -36.1820  -73.6660   -6.0830 O        73 WAT       0.1894
     74 WAT       -36.1820  -73.6660   -5.8330 O        74 WAT       0.2124
     75 WAT       -36.1820  -73.6660   -5.5830 O        75 WAT       0.1803
     76 WAT       -36.1820  -73.6660   -5.3330 O        76 WAT       0.1281
     77 WAT       -36.1820  -73.6660   -5.0830 O        77 WAT       0.0895
     78 WAT       -36.1820  -73.6660   -4.8330 O        78 WAT       0.0680
     79 WAT       -36.1820  -73.6660   -4.5830 O        79 WAT       0.0541
     80 WAT       -36.1820  -73.4160   -6.5830 O        80 WAT       0.0528
     81 WAT       -36.1820  -73.4160   -6.3330 O        81 WAT       0.1045
     82 WAT       -36.1820  -73.4160   -6.0830 O        82 WAT       0.1573
     83 WAT       -36.1820  -73.4160   -5.8330 O        83 WAT       0.1732
     84 WAT       -36.1820  -73.4160   -5.5830 O        84 WAT       0.1420
     85 WAT       -36.1820  -73.4160   -5.3330 O        85 WAT       0.0947
     86 WAT       -36.1820  -73.4160   -5.0830 O        86 WAT       0.0609
     87 WAT       -36.1820  -73.1660   -6.3330 O        87 WAT       0.0643
     88 WAT       -36.1820  -73.1660   -6.0830 O        88 WAT       0.0943
     89 WAT       -36.1820  -73.1660   -5.8330 O        89 WAT       0.1021
     90 WAT       -36.1820  -73.1660   -5.5830 O        90 WAT       0.0814
     91 WAT       -36.1820  -73.1660   -5.3330 O        91 WAT       0.0512
     92 WAT       -35.9320  -74.6660   -3.8330 O        92 WAT       0.0560
     93 WAT       -35.9320  -74.6660   -3.5830 O        93 WAT       0.0688
     94 WAT       -35.9320  -74.6660   -3.3330 O        94 WAT       0.0634
     95 WAT       -35.9320  -74.4160   -6.0830 O        95 WAT       0.0620
     96 WAT       -35.9320  -74.4160   -5.8330 O        96 WAT       0.0749
     97 WAT       -35.9320  -74.4160   -5.5830 O        97 WAT       0.0738
     98 WAT       -35.9320  -74.4160   -5.3330 O        98 WAT       0.0660
     99 WAT       -35.9320  -74.4160   -5.0830 O        99 WAT       0.0582
    100 WAT       -35.9320  -74.4160   -4.8330 O       100 WAT       0.0516
    101 WAT       -35.9320  -74.4160   -4.5830 O       101 WAT       0.0471
    102 WAT       -35.9320  -74.4160   -4.3330 O       102 WAT       0.0485
    103 WAT       -35.9320  -74.4160   -4.0830 O       103 WAT       0.0605
    104 WAT       -35.9320  -74.4160   -3.8330 O       104 WAT       0.0828
    105 WAT       -35.9320  -74.4160   -3.5830 O       105 WAT       0.1017
    106 WAT       -35.9320  -74.4160   -3.3330 O       106 WAT       0.0964
    107 WAT       -35.9320  -74.4160   -3.0830 O       107 WAT       0.0656
    108 WAT       -35.9320  -74.1660   -6.3330 O       108 WAT       0.0758
    109 WAT       -35.9320  -74.1660   -6.0830 O       109 WAT       0.1167
    110 WAT       -35.9320  -74.1660   -5.8330 O       110 WAT       0.1365
    111 WAT       -35.9320  -74.1660   -5.5830 O       111 WAT       0.1288
    112 WAT       -35.9320  -74.1660   -5.3330 O       112 WAT       0.1098
    113 WAT       -35.9320  -74.1660   -5.0830 O       113 WAT       0.0942
    114 WAT       -35.9320  -74.1660   -4.8330 O       114 WAT       0.0830
    115 WAT       -35.9320  -74.1660   -4.5830 O       115 WAT       0.0742
    116 WAT       -35.9320  -74.1660   -4.3330 O       116 WAT       0.0707
    117 WAT       -35.9320  -74.1660   -4.0830 O       117 WAT       0.0782
    118 WAT       -35.9320  -74.1660   -3.8330 O       118 WAT       0.0983
    119 WAT       -35.9320  -74.1660   -3.5830 O       119 WAT       0.1175
    120 WAT       -35.9320  -74.1660   -3.3330 O       120 WAT       0.1125
    121 WAT       -35.9320  -74.1660   -3.0830 O       121 WAT       0.0787
    122 WAT       -35.9320  -73.9160   -6.5830 O       122 WAT       0.0579
    123 WAT       -35.9320  -73.9160   -6.3330 O       123 WAT       0.1133
    124 WAT       -35.9320  -73.9160   -6.0830 O       124 WAT       0.1688
    125 WAT       -35.9320  -73.9160   -5.8330 O       125 WAT       0.1910
    126 WAT       -35.9320  -73.9160   -5.5830 O       126 WAT       0.1728
    127 WAT       -35.9320  -73.9160   -5.3330 O       127 WAT       0.1409
    128 WAT       -35.9320  -73.9160   -5.0830 O       128 WAT       0.1179
    129 WAT       -35.9320  -73.9160   -4.8330 O       129 WAT       0.1044
    130 WAT       -35.9320  -73.9160   -4.5830 O       130 WAT       0.0933
    131 WAT       -35.9320  -73.9160   -4.3330 O       131 WAT       0.0839
    132 WAT       -35.9320  -73.9160   -4.0830 O       132 WAT       0.0821
    133 WAT       -35.9320  -73.9160   -3.8330 O       133 WAT       0.0919
    134 WAT       -35.9320  -73.9160   -3.5830 O       134 WAT       0.1039
    135 WAT       -35.9320  -73.9160   -3.3330 O       135 WAT       0.0987
    136 WAT       -35.9320  -73.9160   -3.0830 O       136 WAT       0.0700
    137 WAT       -35.9320  -73.6660   -6.5830 O       137 WAT       0.0710
    138 WAT       -35.9320  -73.6660   -6.3330 O       138 WAT       0.1294
    139 WAT       -35.9320  -73.6660   -6.0830 O       139 WAT       0.1857
    140 WAT       -35.9320  -73.6660   -5.8330 O       140 WAT       0.2036
    141 WAT       -35.9320  -73.6660   -5.5830 O       141 WAT       0.1770
    142 WAT       -35.9320  -73.6660   -5.3330 O       142 WAT       0.1380
    143 WAT       -35.9320  -73.6660   -5.0830 O       143 WAT       0.1130
    144 WAT       -35.9320  -73.6660   -4.8330 O       144 WAT       0.1011
    145 WAT       -35.9320  -73.6660   -4.5830 O       145 WAT       0.0908
    146 WAT       -35.9320  -73.6660   -4.3330 O       146 WAT       0.0781
    147 WAT       -35.9320  -73.6660   -4.0830 O       147 WAT       0.0680
    148 WAT       -35.9320  -73.6660   -3.8330 O       148 WAT       0.0661
    149 WAT       -35.9320  -73.6660   -3.5830 O       149 WAT       0.0686
    150 WAT       -35.9320  -73.6660   -3.3330 O       150 WAT       0.0633
    151 WAT       -35.9320  -73.4160   -6.5830 O       151 WAT       0.0677
    152 WAT       -35.9320  -73.4160   -6.3330 O       152 WAT       0.1119
    153 WAT       -35.9320  -73.4160   -6.0830 O       153 WAT       0.1529
    154 WAT       -35.9320  -73.4160   -5.8330 O       154 WAT       0.1625
    155 WAT       -35.9320  -73.4160   -5.5830 O       155 WAT       0.1361
    156 WAT       -35.9320  -73.4160   -5.3330 O       156 WAT       0.1016
    157 WAT       -35.9320  -73.4160   -5.0830 O       157 WAT       0.0814
    158 WAT       -35.9320  -73.4160   -4.8330 O       158 WAT       0.0738
    159 WAT       -35.9320  -73.4160   -4.5830 O       159 WAT       0.0666
    160 WAT       -35.9320  -73.4160   -4.3330 O       160 WAT       0.0551
    161 WAT       -35.9320  -73.1660   -6.5830 O       161 WAT       0.0518
    162 WAT       -35.9320  -73.1660   -6.3330 O       162 WAT       0.0745
    163 WAT       -35.9320  -73.1660   -6.0830 O       163 WAT       0.0941
    164 WAT       -35.9320  -73.1660   -5.8330 O       164 WAT       0.0958
    165 WAT       -35.9320  -73.1660   -5.5830 O       165 WAT       0.0772
    166 WAT       -35.9320  -73.1660   -5.3330 O       166 WAT       0.0550
    167 WAT       -35.6820  -74.9160   -3.8330 O       167 WAT       0.0481
    168 WAT       -35.6820  -74.9160   -3.5830 O       168 WAT       0.0640
    169 WAT       -35.6820  -74.9160   -3.3330 O       169 WAT       0.0609
    170 WAT       -35.6820  -74.6660   -4.0830 O       170 WAT       0.0493
    171 WAT       -35.6820  -74.6660   -3.8330 O       171 WAT       0.0839
    172 WAT       -35.6820  -74.6660   -3.5830 O       172 WAT       0.1139
    173 WAT       -35.6820  -74.6660   -3.3330 O       173 WAT       0.1125
    174 WAT       -35.6820  -74.6660   -3.0830 O       174 WAT       0.0780
    175 WAT       -35.6820  -74.4160   -6.0830 O       175 WAT       0.0561
    176 WAT       -35.6820  -74.4160   -5.8330 O       176 WAT       0.0652
    177 WAT       -35.6820  -74.4160   -5.5830 O       177 WAT       0.0629
    178 WAT       -35.6820  -74.4160   -5.3330 O       178 WAT       0.0558
    179 WAT       -35.6820  -74.4160   -5.0830 O       179 WAT       0.0496
    180 WAT       -35.6820  -74.4160   -4.3330 O       180 WAT       0.0508
    181 WAT       -35.6820  -74.4160   -4.0830 O       181 WAT       0.0754
    182 WAT       -35.6820  -74.4160   -3.8330 O       182 WAT       0.1196
    183 WAT       -35.6820  -74.4160   -3.5830 O       183 WAT       0.1621
    184 WAT       -35.6820  -74.4160   -3.3330 O       184 WAT       0.1642
    185 WAT       -35.6820  -74.4160   -3.0830 O       185 WAT       0.1178
    186 WAT       -35.6820  -74.4160   -2.8330 O       186 WAT       0.0586
    187 WAT       -35.6820  -74.1660   -6.3330 O       187 WAT       0.0646
    188 WAT       -35.6820  -74.1660   -6.0830 O       188 WAT       0.0959
    189 WAT       -35.6820  -74.1660   -5.8330 O       189 WAT       0.1106
    190 WAT       -35.6820  -74.1660   -5.5830 O       190 WAT       0.1062
    191 WAT       -35.6820  -74.1660   -5.3330 O       191 WAT       0.0951
    192 WAT       -35.6820  -74.1660   -5.0830 O       192 WAT       0.0874
    193 WAT       -35.6820  -74.1660   -4.8330 O       193 WAT       0.0825
    194 WAT       -35.6820  -74.1660   -4.5830 O       194 WAT       0.0790
    195 WAT       -35.6820  -74.1660   -4.3330 O       195 WAT       0.0813
    196 WAT       -35.6820  -74.1660   -4.0830 O       196 WAT       0.0998
    197 WAT       -35.6820  -74.1660   -3.8330 O       197 WAT       0.1404
    198 WAT       -35.6820  -74.1660   -3.5830 O       198 WAT       0.1834
    199 WAT       -35.6820  -74.1660   -3.3330 O       199 WAT       0.1869
    200 WAT       -35.6820  -74.1660   -3.0830 O       200 WAT       0.1372
    201 WAT       -35.6820  -74.1660   -2.8330 O       201 WAT       0.0703
    202 WAT       -35.6820  -73.9160   -6.5830 O       202 WAT       0.0496
    203 WAT       -35.6820  -73.9160   -6.3330 O       203 WAT       0.0890
    204 WAT       -35.6820  -73.9160   -6.0830 O       204 WAT       0.1270
    205 WAT       -35.6820  -73.9160   -5.8330 O       205 WAT       0.1433
    206 WAT       -35.6820  -73.9160   -5.5830 O       206 WAT       0.1361
    207 WAT       -35.6820  -73.9160   -5.3330 O       207 WAT       0.1235
    208 WAT       -35.6820  -73.9160   -5.0830 O       208 WAT       0.1187
    209 WAT       -35.6820  -73.9160   -4.8330 O       209 WAT       0.1185
    210 WAT       -35.6820  -73.9160   -4.5830 O       210 WAT       0.1149
    211 WAT       -35.6820  -73.9160   -4.3330 O       211 WAT       0.1087
    212 WAT       -35.6820  -73.9160   -4.0830 O       212 WAT       0.1115
    213 WAT       -35.6820  -73.9160   -3.8330 O       213 WAT       0.1334
    214 WAT       -35.6820  -73.9160   -3.5830 O       214 WAT       0.1617
    215 WAT       -35.6820  -73.9160   -3.3330 O       215 WAT       0.1621
    216 WAT       -35.6820  -73.9160   -3.0830 O       216 WAT       0.1201
    217 WAT       -35.6820  -73.9160   -2.8330 O       217 WAT       0.0628
    218 WAT       -35.6820  -73.6660   -6.5830 O       218 WAT       0.0630
    219 WAT       -35.6820  -73.6660   -6.3330 O       219 WAT       0.0989
    220 WAT       -35.6820  -73.6660   -6.0830 O       220 WAT       0.1318
    221 WAT       -35.6820  -73.6660   -5.8330 O       221 WAT       0.1435
    222 WAT       -35.6820  -73.6660   -5.5830 O       222 WAT       0.1335
    223 WAT       -35.6820  -73.6660   -5.3330 O       223 WAT       0.1225
    224 WAT       -35.6820  -73.6660   -5.0830 O       224 WAT       0.1239
    225 WAT       -35.6820  -73.6660   -4.8330 O       225 WAT       0.1308
    226 WAT       -35.6820  -73.6660   -4.5830 O       226 WAT       0.1288
    227 WAT       -35.6820  -73.6660   -4.3330 O       227 WAT       0.1150
    228 WAT       -35.6820  -73.6660   -4.0830 O       228 WAT       0.1012
    229 WAT       -35.6820  -73.6660   -3.8330 O       229 WAT       0.1005
    230 WAT       -35.6820  -73.6660   -3.5830 O       230 WAT       0.1086
    231 WAT       -35.6820  -73.6660   -3.3330 O       231 WAT       0.1046
    232 WAT       -35.6820  -73.6660   -3.0830 O       232 WAT       0.0772
    233 WAT       -35.6820  -73.4160   -6.8330 O       233 WAT       0.0481
    234 WAT       -35.6820  -73.4160   -6.5830 O       234 WAT       0.0685
    235 WAT       -35.6820  -73.4160   -6.3330 O       235 WAT       0.0897
    236 WAT       -35.6820  -73.4160   -6.0830 O       236 WAT       0.1074
    237 WAT       -35.6820  -73.4160   -5.8330 O       237 WAT       0.1104
    238 WAT       -35.6820  -73.4160   -5.5830 O       238 WAT       0.0995
    239 WAT       -35.6820  -73.4160   -5.3330 O       239 WAT       0.0918
    240 WAT       -35.6820  -73.4160   -5.0830 O       240 WAT       0.0977
    241 WAT       -35.6820  -73.4160   -4.8330 O       241 WAT       0.1085
    242 WAT       -35.6820  -73.4160   -4.5830 O       242 WAT       0.1083
    243 WAT       -35.6820  -73.4160   -4.3330 O       243 WAT       0.0924
    244 WAT       -35.6820  -73.4160   -4.0830 O       244 WAT       0.0718
    245 WAT       -35.6820  -73.4160   -3.8330 O       245 WAT       0.0589
    246 WAT       -35.6820  -73.4160   -3.5830 O       246 WAT       0.0547
    247 WAT       -35.6820  -73.4160   -3.3330 O       247 WAT       0.0493
    248 WAT       -35.6820  -73.1660   -6.8330 O       248 WAT       0.0554
    249 WAT       -35.6820  -73.1660   -6.5830 O       249 WAT       0.0653
    250 WAT       -35.6820  -73.1660   -6.3330 O       250 WAT       0.0689
    251 WAT       -35.6820  -73.1660   -6.0830 O       251 WAT       0.0696
    252 WAT       -35.6820  -73.1660   -5.8330 O       252 WAT       0.0649
    253 WAT       -35.6820  -73.1660   -5.5830 O       253 WAT       0.0554
    254 WAT       -35.6820  -73.1660   -5.3330 O       254 WAT       0.0509
    255 WAT       -35.6820  -73.1660   -5.0830 O       255 WAT       0.0568
    256 WAT       -35.6820  -73.1660   -4.8330 O       256 WAT       0.0660
    257 WAT       -35.6820  -73.1660   -4.5830 O       257 WAT       0.0666
    258 WAT       -35.6820  -73.1660   -4.3330 O       258 WAT       0.0548
    259 WAT       -35.6820  -72.9160   -6.8330 O       259 WAT       0.0565
    260 WAT       -35.6820  -72.9160   -6.5830 O       260 WAT       0.0561
    261 WAT       -35.6820  -72.9160   -6.3330 O       261 WAT       0.0474
    262 WAT       -35.6820  -72.6660   -7.0830 O       262 WAT       0.0488
    263 WAT       -35.6820  -72.6660   -6.8330 O       263 WAT       0.0535
    264 WAT       -35.6820  -72.4160   -7.0830 O       264 WAT       0.0515
    265 WAT       -35.6820  -72.4160   -6.8330 O       265 WAT       0.0480
    266 WAT       -35.6820  -72.1660   -7.0830 O       266 WAT       0.0509
    267 WAT       -35.6820  -71.9160   -7.0830 O       267 WAT       0.0451
    268 WAT       -35.4320  -74.9160   -3.8330 O       268 WAT       0.0590
    269 WAT       -35.4320  -74.9160   -3.5830 O       269 WAT       0.0841
    270 WAT       -35.4320  -74.9160   -3.3330 O       270 WAT       0.0850
    271 WAT       -35.4320  -74.9160   -3.0830 O       271 WAT       0.0599
    272 WAT       -35.4320  -74.6660   -4.0830 O       272 WAT       0.0508
    273 WAT       -35.4320  -74.6660   -3.8330 O       273 WAT       0.0950
    274 WAT       -35.4320  -74.6660   -3.5830 O       274 WAT       0.1376
    275 WAT       -35.4320  -74.6660   -3.3330 O       275 WAT       0.1436
    276 WAT       -35.4320  -74.6660   -3.0830 O       276 WAT       0.1048
    277 WAT       -35.4320  -74.6660   -2.8330 O       277 WAT       0.0528
    278 WAT       -35.4320  -74.4160   -5.8330 O       278 WAT       0.0472
    279 WAT       -35.4320  -74.4160   -4.3330 O       279 WAT       0.0453
    280 WAT       -35.4320  -74.4160   -4.0830 O       280 WAT       0.0741
    281 WAT       -35.4320  -74.4160   -3.8330 O       281 WAT       0.1280
    282 WAT       -35.4320  -74.4160   -3.5830 O       282 WAT       0.1846
    283 WAT       -35.4320  -74.4160   -3.3330 O       283 WAT       0.1964
    284 WAT       -35.4320  -74.4160   -3.0830 O       284 WAT       0.1474
    285 WAT       -35.4320  -74.4160   -2.8330 O       285 WAT       0.0768
    286 WAT       -35.4320  -74.1660   -6.3330 O       286 WAT       0.0460
    287 WAT       -35.4320  -74.1660   -6.0830 O       287 WAT       0.0660
    288 WAT       -35.4320  -74.1660   -5.8330 O       288 WAT       0.0747
    289 WAT       -35.4320  -74.1660   -5.5830 O       289 WAT       0.0728
    290 WAT       -35.4320  -74.1660   -5.3330 O       290 WAT       0.0696
    291 WAT       -35.4320  -74.1660   -5.0830 O       291 WAT       0.0703
    292 WAT       -35.4320  -74.1660   -4.8330 O       292 WAT       0.0723
    293 WAT       -35.4320  -74.1660   -4.5830 O       293 WAT       0.0731
    294 WAT       -35.4320  -74.1660   -4.3330 O       294 WAT       0.0772
    295 WAT       -35.4320  -74.1660   -4.0830 O       295 WAT       0.0981
    296 WAT       -35.4320  -74.1660   -3.8330 O       296 WAT       0.1458
    297 WAT       -35.4320  -74.1660   -3.5830 O       297 WAT       0.2009
    298 WAT       -35.4320  -74.1660   -3.3330 O       298 WAT       0.2139
    299 WAT       -35.4320  -74.1660   -3.0830 O       299 WAT       0.1632
    300 WAT       -35.4320  -74.1660   -2.8330 O       300 WAT       0.0871
    301 WAT       -35.4320  -73.9160   -6.3330 O       301 WAT       0.0565
    302 WAT       -35.4320  -73.9160   -6.0830 O       302 WAT       0.0778
    303 WAT       -35.4320  -73.9160   -5.8330 O       303 WAT       0.0883
    304 WAT       -35.4320  -73.9160   -5.5830 O       304 WAT       0.0898
    305 WAT       -35.4320  -73.9160   -5.3330 O       305 WAT       0.0938
    306 WAT       -35.4320  -73.9160   -5.0830 O       306 WAT       0.1055
    307 WAT       -35.4320  -73.9160   -4.8330 O       307 WAT       0.1177
    308 WAT       -35.4320  -73.9160   -4.5830 O       308 WAT       0.1199
    309 WAT       -35.4320  -73.9160   -4.3330 O       309 WAT       0.1135
    310 WAT       -35.4320  -73.9160   -4.0830 O       310 WAT       0.1148
    311 WAT       -35.4320  -73.9160   -3.8330 O       311 WAT       0.1388
    312 WAT       -35.4320  -73.9160   -3.5830 O       312 WAT       0.1740
    313 WAT       -35.4320  -73.9160   -3.3330 O       313 WAT       0.1809
    314 WAT       -35.4320  -73.9160   -3.0830 O       314 WAT       0.1387
    315 WAT       -35.4320  -73.9160   -2.8330 O       315 WAT       0.0752
    316 WAT       -35.4320  -73.6660   -6.3330 O       316 WAT       0.0593
    317 WAT       -35.4320  -73.6660   -6.0830 O       317 WAT       0.0733
    318 WAT       -35.4320  -73.6660   -5.8330 O       318 WAT       0.0808
    319 WAT       -35.4320  -73.6660   -5.5830 O       319 WAT       0.0847
    320 WAT       -35.4320  -73.6660   -5.3330 O       320 WAT       0.0971
    321 WAT       -35.4320  -73.6660   -5.0830 O       321 WAT       0.1221
    322 WAT       -35.4320  -73.6660   -4.8330 O       322 WAT       0.1462
    323 WAT       -35.4320  -73.6660   -4.5830 O       323 WAT       0.1508
    324 WAT       -35.4320  -73.6660   -4.3330 O       324 WAT       0.1334
    325 WAT       -35.4320  -73.6660   -4.0830 O       325 WAT       0.1129
    326 WAT       -35.4320  -73.6660   -3.8330 O       326 WAT       0.1087
    327 WAT       -35.4320  -73.6660   -3.5830 O       327 WAT       0.1179
    328 WAT       -35.4320  -73.6660   -3.3330 O       328 WAT       0.1163
    329 WAT       -35.4320  -73.6660   -3.0830 O       329 WAT       0.0882
    330 WAT       -35.4320  -73.6660   -2.8330 O       330 WAT       0.0480
    331 WAT       -35.4320  -73.4160   -6.8330 O       331 WAT       0.0502
    332 WAT       -35.4320  -73.4160   -6.5830 O       332 WAT       0.0565
    333 WAT       -35.4320  -73.4160   -6.3330 O       333 WAT       0.0574
    334 WAT       -35.4320  -73.4160   -6.0830 O       334 WAT       0.0579
    335 WAT       -35.4320  -73.4160   -5.8330 O       335 WAT       0.0582
    336 WAT       -35.4320  -73.4160   -5.5830 O       336 WAT       0.0615
    337 WAT       -35.4320  -73.4160   -5.3330 O       337 WAT       0.0770
    338 WAT       -35.4320  -73.4160   -5.0830 O       338 WAT       0.1068
    339 WAT       -35.4320  -73.4160   -4.8330 O       339 WAT       0.1357
    340 WAT       -35.4320  -73.4160   -4.5830 O       340 WAT       0.1414
    341 WAT       -35.4320  -73.4160   -4.3330 O       341 WAT       0.1196
    342 WAT       -35.4320  -73.4160   -4.0830 O       342 WAT       0.0888
    343 WAT       -35.4320  -73.4160   -3.8330 O       343 WAT       0.0687
    344 WAT       -35.4320  -73.4160   -3.5830 O       344 WAT       0.0618
    345 WAT       -35.4320  -73.4160   -3.3330 O       345 WAT       0.0558
    346 WAT       -35.4320  -73.1660   -7.0830 O       346 WAT       0.0588
    347 WAT       -35.4320  -73.1660   -6.8330 O       347 WAT       0.0726
    348 WAT       -35.4320  -73.1660   -6.5830 O       348 WAT       0.0684
    349 WAT       -35.4320  -73.1660   -6.3330 O       349 WAT       0.0537
    350 WAT       -35.4320  -73.1660   -5.3330 O       350 WAT       0.0456
    351 WAT       -35.4320  -73.1660   -5.0830 O       351 WAT       0.0688
    352 WAT       -35.4320  -73.1660   -4.8330 O       352 WAT       0.0916
    353 WAT       -35.4320  -73.1660   -4.5830 O       353 WAT       0.0966
    354 WAT       -35.4320  -73.1660   -4.3330 O       354 WAT       0.0793
    355 WAT       -35.4320  -73.1660   -4.0830 O       355 WAT       0.0534
    356 WAT       -35.4320  -72.9160   -7.3330 O       356 WAT       0.0577
    357 WAT       -35.4320  -72.9160   -7.0830 O       357 WAT       0.0868
    358 WAT       -35.4320  -72.9160   -6.8330 O       358 WAT       0.0941
    359 WAT       -35.4320  -72.9160   -6.5830 O       359 WAT       0.0765
    360 WAT       -35.4320  -72.9160   -6.3330 O       360 WAT       0.0493
    361 WAT       -35.4320  -72.9160   -4.5830 O       361 WAT       0.0470
    362 WAT       -35.4320  -72.6660   -7.5830 O       362 WAT       0.0452
    363 WAT       -35.4320  -72.6660   -7.3330 O       363 WAT       0.0892
    364 WAT       -35.4320  -72.6660   -7.0830 O       364 WAT       0.1185
    365 WAT       -35.4320  -72.6660   -6.8330 O       365 WAT       0.1118
    366 WAT       -35.4320  -72.6660   -6.5830 O       366 WAT       0.0785
    367 WAT       -35.4320  -72.4160   -7.5830 O       367 WAT       0.0697
    368 WAT       -35.4320  -72.4160   -7.3330 O       368 WAT       0.1242
    369 WAT       -35.4320  -72.4160   -7.0830 O       369 WAT       0.1476
    370 WAT       -35.4320  -72.4160   -6.8330 O       370 WAT       0.1217
    371 WAT       -35.4320  -72.4160   -6.5830 O       371 WAT       0.0729
    372 WAT       -35.4320  -72.1660   -7.5830 O       372 WAT       0.0927
    373 WAT       -35.4320  -72.1660   -7.3330 O       373 WAT       0.1509
    374 WAT       -35.4320  -72.1660   -7.0830 O       374 WAT       0.1621
    375 WAT       -35.4320  -72.1660   -6.8330 O       375 WAT       0.1181
    376 WAT       -35.4320  -72.1660   -6.5830 O       376 WAT       0.0603
    377 WAT       -35.4320  -71.9160   -7.5830 O       377 WAT       0.1032
    378 WAT       -35.4320  -71.9160   -7.3330 O       378 WAT       0.1556
    379 WAT       -35.4320  -71.9160   -7.0830 O       379 WAT       0.1528
    380 WAT       -35.4320  -71.9160   -6.8330 O       380 WAT       0.0997
    381 WAT       -35.4320  -71.6660   -7.5830 O       381 WAT       0.0937
    382 WAT       -35.4320  -71.6660   -7.3330 O       382 WAT       0.1328
    383 WAT       -35.4320  -71.6660   -7.0830 O       383 WAT       0.1210
    384 WAT       -35.4320  -71.6660   -6.8330 O       384 WAT       0.0717
    385 WAT       -35.4320  -71.4160   -7.5830 O       385 WAT       0.0678
    386 WAT       -35.4320  -71.4160   -7.3330 O       386 WAT       0.0917
    387 WAT       -35.4320  -71.4160   -7.0830 O       387 WAT       0.0787
    388 WAT       -35.4320  -71.1660   -7.3330 O       388 WAT       0.0502
    389 WAT       -35.1820  -75.1660   -3.5830 O       389 WAT       0.0501
    390 WAT       -35.1820  -75.1660   -3.3330 O       390 WAT       0.0536
    391 WAT       -35.1820  -74.9160   -3.8330 O       391 WAT       0.0565
    392 WAT       -35.1820  -74.9160   -3.5830 O       392 WAT       0.0852
    393 WAT       -35.1820  -74.9160   -3.3330 O       393 WAT       0.0915
    394 WAT       -35.1820  -74.9160   -3.0830 O       394 WAT       0.0688
    395 WAT       -35.1820  -74.6660   -3.8330 O       395 WAT       0.0809
    396 WAT       -35.1820  -74.6660   -3.5830 O       396 WAT       0.1229
    397 WAT       -35.1820  -74.6660   -3.3330 O       397 WAT       0.1345
    398 WAT       -35.1820  -74.6660   -3.0830 O       398 WAT       0.1034
    399 WAT       -35.1820  -74.6660   -2.8330 O       399 WAT       0.0552
    400 WAT       -35.1820  -74.4160   -4.0830 O       400 WAT       0.0554
    401 WAT       -35.1820  -74.4160   -3.8330 O       401 WAT       0.0999
    402 WAT       -35.1820  -74.4160   -3.5830 O       402 WAT       0.1502
    403 WAT       -35.1820  -74.4160   -3.3330 O       403 WAT       0.1666
    404 WAT       -35.1820  -74.4160   -3.0830 O       404 WAT       0.1305
    405 WAT       -35.1820  -74.4160   -2.8330 O       405 WAT       0.0713
    406 WAT       -35.1820  -74.1660   -5.8330 O       406 WAT       0.0477
    407 WAT       -35.1820  -74.1660   -5.5830 O       407 WAT       0.0457
    408 WAT       -35.1820  -74.1660   -5.3330 O       408 WAT       0.0454
    409 WAT       -35.1820  -74.1660   -5.0830 O       409 WAT       0.0501
    410 WAT       -35.1820  -74.1660   -4.8330 O       410 WAT       0.0556
    411 WAT       -35.1820  -74.1660   -4.5830 O       411 WAT       0.0572
    412 WAT       -35.1820  -74.1660   -4.3330 O       412 WAT       0.0584
    413 WAT       -35.1820  -74.1660   -4.0830 O       413 WAT       0.0718
    414 WAT       -35.1820  -74.1660   -3.8330 O       414 WAT       0.1080
    415 WAT       -35.1820  -74.1660   -3.5830 O       415 WAT       0.1534
    416 WAT       -35.1820  -74.1660   -3.3330 O       416 WAT       0.1691
    417 WAT       -35.1820  -74.1660   -3.0830 O       417 WAT       0.1338
    418 WAT       -35.1820  -74.1660   -2.8330 O       418 WAT       0.0742
    419 WAT       -35.1820  -73.9160   -6.0830 O       419 WAT       0.0457
    420 WAT       -35.1820  -73.9160   -5.8330 O       420 WAT       0.0515
    421 WAT       -35.1820  -73.9160   -5.5830 O       421 WAT       0.0549
    422 WAT       -35.1820  -73.9160   -5.3330 O       422 WAT       0.0647
    423 WAT       -35.1820  -73.9160   -5.0830 O       423 WAT       0.0831
    424 WAT       -35.1820  -73.9160   -4.8330 O       424 WAT       0.0996
    425 WAT       -35.1820  -73.9160   -4.5830 O       425 WAT       0.1022
    426 WAT       -35.1820  -73.9160   -4.3330 O       426 WAT       0.0925
    427 WAT       -35.1820  -73.9160   -4.0830 O       427 WAT       0.0874
    428 WAT       -35.1820  -73.9160   -3.8330 O       428 WAT       0.1019
    429 WAT       -35.1820  -73.9160   -3.5830 O       429 WAT       0.1286
    430 WAT       -35.1820  -73.9160   -3.3330 O       430 WAT       0.1370
    431 WAT       -35.1820  -73.9160   -3.0830 O       431 WAT       0.1081
    432 WAT       -35.1820  -73.9160   -2.8330 O       432 WAT       0.0606
    433 WAT       -35.1820  -73.6660   -5.5830 O       433 WAT       0.0505
    434 WAT       -35.1820  -73.6660   -5.3330 O       434 WAT       0.0717
    435 WAT       -35.1820  -73.6660   -5.0830 O       435 WAT       0.1056
    436 WAT       -35.1820  -73.6660   -4.8330 O       436 WAT       0.1353
    437 WAT       -35.1820  -73.6660   -4.5830 O       437 WAT       0.1399
    438 WAT       -35.1820  -73.6660   -4.3330 O       438 WAT       0.1185
    439 WAT       -35.1820  -73.6660   -4.0830 O       439 WAT       0.0928
    440 WAT       -35.1820  -73.6660   -3.8330 O       440 WAT       0.0827
    441 WAT       -35.1820  -73.6660   -3.5830 O       441 WAT       0.0871
    442 WAT       -35.1820  -73.6660   -3.3330 O       442 WAT       0.0866
    443 WAT       -35.1820  -73.6660   -3.0830 O       443 WAT       0.0671
    444 WAT       -35.1820  -73.4160   -5.3330 O       444 WAT       0.0615
    445 WAT       -35.1820  -73.4160   -5.0830 O       445 WAT       0.1014
    446 WAT       -35.1820  -73.4160   -4.8330 O       446 WAT       0.1367
    447 WAT       -35.1820  -73.4160   -4.5830 O       447 WAT       0.1427
    448 WAT       -35.1820  -73.4160   -4.3330 O       448 WAT       0.1163
    449 WAT       -35.1820  -73.4160   -4.0830 O       449 WAT       0.0803
    450 WAT       -35.1820  -73.4160   -3.8330 O       450 WAT       0.0563
    451 WAT       -35.1820  -73.4160   -3.5830 O       451 WAT       0.0472
    452 WAT       -35.1820  -73.1660   -7.0830 O       452 WAT       0.0668
    453 WAT       -35.1820  -73.1660   -6.8330 O       453 WAT       0.0717
    454 WAT       -35.1820  -73.1660   -6.5830 O       454 WAT       0.0568
    455 WAT       -35.1820  -73.1660   -5.0830 O       455 WAT       0.0713
    456 WAT       -35.1820  -73.1660   -4.8330 O       456 WAT       0.1002
    457 WAT       -35.1820  -73.1660   -4.5830 O       457 WAT       0.1059
    458 WAT       -35.1820  -73.1660   -4.3330 O       458 WAT       0.0845
    459 WAT       -35.1820  -73.1660   -4.0830 O       459 WAT       0.0536
    460 WAT       -35.1820  -72.9160   -7.5830 O       460 WAT       0.0455
    461 WAT       -35.1820  -72.9160   -7.3330 O       461 WAT       0.0906
    462 WAT       -35.1820  -72.9160   -7.0830 O       462 WAT       0.1217
    463 WAT       -35.1820  -72.9160   -6.8330 O       463 WAT       0.1151
    464 WAT       -35.1820  -72.9160   -6.5830 O       464 WAT       0.0796
    465 WAT       -35.1820  -72.9160   -4.8330 O       465 WAT       0.0524
    466 WAT       -35.1820  -72.9160   -4.5830 O       466 WAT       0.0561
    467 WAT       -35.1820  -72.6660   -7.5830 O       467 WAT       0.0903
    468 WAT       -35.1820  -72.6660   -7.3330 O       468 WAT       0.1635
    469 WAT       -35.1820  -72.6660   -7.0830 O       469 WAT       0.1976
    470 WAT       -35.1820  -72.6660   -6.8330 O       470 WAT       0.1654
    471 WAT       -35.1820  -72.6660   -6.5830 O       471 WAT       0.0998
    472 WAT       -35.1820  -72.6660   -6.3330 O       472 WAT       0.0452
    473 WAT       -35.1820  -72.4160   -7.8330 O       473 WAT       0.0582
    474 WAT       -35.1820  -72.4160   -7.5830 O       474 WAT       0.1517
    475 WAT       -35.1820  -72.4160   -7.3330 O       475 WAT       0.2529
    476 WAT       -35.1820  -72.4160   -7.0830 O       476 WAT       0.2784
    477 WAT       -35.1820  -72.4160   -6.8330 O       477 WAT       0.2082
    478 WAT       -35.1820  -72.4160   -6.5830 O       478 WAT       0.1098
    479 WAT       -35.1820  -72.1660   -7.8330 O       479 WAT       0.0876
    480 WAT       -35.1820  -72.1660   -7.5830 O       480 WAT       0.2115
    481 WAT       -35.1820  -72.1660   -7.3330 O       481 WAT       0.3270
    482 WAT       -35.1820  -72.1660   -7.0830 O       482 WAT       0.3306
    483 WAT       -35.1820  -72.1660   -6.8330 O       483 WAT       0.2235
    484 WAT       -35.1820  -72.1660   -6.5830 O       484 WAT       0.1038
    485 WAT       -35.1820  -71.9160   -7.8330 O       485 WAT       0.1059
    486 WAT       -35.1820  -71.9160   -7.5830 O       486 WAT       0.2402
    487 WAT       -35.1820  -71.9160   -7.3330 O       487 WAT       0.3473
    488 WAT       -35.1820  -71.9160   -7.0830 O       488 WAT       0.3252
    489 WAT       -35.1820  -71.9160   -6.8330 O       489 WAT       0.2006
    490 WAT       -35.1820  -71.9160   -6.5830 O       490 WAT       0.0829
    491 WAT       -35.1820  -71.6660   -7.8330 O       491 WAT       0.1009
    492 WAT       -35.1820  -71.6660   -7.5830 O       492 WAT       0.2181
    493 WAT       -35.1820  -71.6660   -7.3330 O       493 WAT       0.2982
    494 WAT       -35.1820  -71.6660   -7.0830 O       494 WAT       0.2615
    495 WAT       -35.1820  -71.6660   -6.8330 O       495 WAT       0.1491
    496 WAT       -35.1820  -71.6660   -6.5830 O       496 WAT       0.0553
    497 WAT       -35.1820  -71.4160   -7.8330 O       497 WAT       0.0747
    498 WAT       -35.1820  -71.4160   -7.5830 O       498 WAT       0.1555
    499 WAT       -35.1820  -71.4160   -7.3330 O       499 WAT       0.2035
    500 WAT       -35.1820  -71.4160   -7.0830 O       500 WAT       0.1696
    501 WAT       -35.1820  -71.4160   -6.8330 O       501 WAT       0.0904
    502 WAT       -35.1820  -71.1660   -7.5830 O       502 WAT       0.0858
    503 WAT       -35.1820  -71.1660   -7.3330 O       503 WAT       0.1090
    504 WAT       -35.1820  -71.1660   -7.0830 O       504 WAT       0.0874
    505 WAT       -35.1820  -70.9160   -7.3330 O       505 WAT       0.0451
    506 WAT       -34.9320  -75.1660   -3.5830 O       506 WAT       0.0554
    507 WAT       -34.9320  -75.1660   -3.3330 O       507 WAT       0.0647
    508 WAT       -34.9320  -75.1660   -3.0830 O       508 WAT       0.0537
    509 WAT       -34.9320  -74.9160   -3.8330 O       509 WAT       0.0466
    510 WAT       -34.9320  -74.9160   -3.5830 O       510 WAT       0.0742
    511 WAT       -34.9320  -74.9160   -3.3330 O       511 WAT       0.0848
    512 WAT       -34.9320  -74.9160   -3.0830 O       512 WAT       0.0689
    513 WAT       -34.9320  -74.6660   -3.8330 O       513 WAT       0.0550
    514 WAT       -34.9320  -74.6660   -3.5830 O       514 WAT       0.0869
    515 WAT       -34.9320  -74.6660   -3.3330 O       515 WAT       0.0997
    516 WAT       -34.9320  -74.6660   -3.0830 O       516 WAT       0.0813
    517 WAT       -34.9320  -74.6660   -2.8330 O       517 WAT       0.0466
    518 WAT       -34.9320  -74.4160   -3.8330 O       518 WAT       0.0583
    519 WAT       -34.9320  -74.4160   -3.5830 O       519 WAT       0.0906
    520 WAT       -34.9320  -74.4160   -3.3330 O       520 WAT       0.1045
    521 WAT       -34.9320  -74.4160   -3.0830 O       521 WAT       0.0860
    522 WAT       -34.9320  -74.4160   -2.8330 O       522 WAT       0.0497
    523 WAT       -34.9320  -74.1660   -3.8330 O       523 WAT       0.0572
    524 WAT       -34.9320  -74.1660   -3.5830 O       524 WAT       0.0831
    525 WAT       -34.9320  -74.1660   -3.3330 O       525 WAT       0.0946
    526 WAT       -34.9320  -74.1660   -3.0830 O       526 WAT       0.0779
    527 WAT       -34.9320  -74.1660   -2.8330 O       527 WAT       0.0453
    528 WAT       -34.9320  -73.9160   -5.0830 O       528 WAT       0.0557
    529 WAT       -34.9320  -73.9160   -4.8330 O       529 WAT       0.0684
    530 WAT       -34.9320  -73.9160   -4.5830 O       530 WAT       0.0685
    531 WAT       -34.9320  -73.9160   -4.3330 O       531 WAT       0.0574
    532 WAT       -34.9320  -73.9160   -4.0830 O       532 WAT       0.0485
    533 WAT       -34.9320  -73.9160   -3.8330 O       533 WAT       0.0523
    534 WAT       -34.9320  -73.9160   -3.5830 O       534 WAT       0.0655
    535 WAT       -34.9320  -73.9160   -3.3330 O       535 WAT       0.0712
    536 WAT       -34.9320  -73.9160   -3.0830 O       536 WAT       0.0579
    537 WAT       -34.9320  -73.6660   -5.3330 O       537 WAT       0.0479
    538 WAT       -34.9320  -73.6660   -5.0830 O       538 WAT       0.0759
    539 WAT       -34.9320  -73.6660   -4.8330 O       539 WAT       0.0988
    540 WAT       -34.9320  -73.6660   -4.5830 O       540 WAT       0.0993
    541 WAT       -34.9320  -73.6660   -4.3330 O       541 WAT       0.0788
    542 WAT       -34.9320  -73.6660   -4.0830 O       542 WAT       0.0554
    543 WAT       -34.9320  -73.4160   -5.0830 O       543 WAT       0.0781
    544 WAT       -34.9320  -73.4160   -4.8330 O       544 WAT       0.1063
    545 WAT       -34.9320  -73.4160   -4.5830 O       545 WAT       0.1080
    546 WAT       -34.9320  -73.4160   -4.3330 O       546 WAT       0.0833
    547 WAT       -34.9320  -73.4160   -4.0830 O       547 WAT       0.0524
    548 WAT       -34.9320  -73.1660   -7.0830 O       548 WAT       0.0547
    549 WAT       -34.9320  -73.1660   -6.8330 O       549 WAT       0.0519
    550 WAT       -34.9320  -73.1660   -5.0830 O       550 WAT       0.0592
    551 WAT       -34.9320  -73.1660   -4.8330 O       551 WAT       0.0834
    552 WAT       -34.9320  -73.1660   -4.5830 O       552 WAT       0.0860
    553 WAT       -34.9320  -73.1660   -4.3330 O       553 WAT       0.0655
    554 WAT       -34.9320  -72.9160   -7.5830 O       554 WAT       0.0526
    555 WAT       -34.9320  -72.9160   -7.3330 O       555 WAT       0.0974
    556 WAT       -34.9320  -72.9160   -7.0830 O       556 WAT       0.1194
    557 WAT       -34.9320  -72.9160   -6.8330 O       557 WAT       0.1008
    558 WAT       -34.9320  -72.9160   -6.5830 O       558 WAT       0.0607
    559 WAT       -34.9320  -72.9160   -4.8330 O       559 WAT       0.0471
    560 WAT       -34.9320  -72.9160   -4.5830 O       560 WAT       0.0493
    561 WAT       -34.9320  -72.6660   -7.5830 O       561 WAT       0.1166
    562 WAT       -34.9320  -72.6660   -7.3330 O       562 WAT       0.1989
    563 WAT       -34.9320  -72.6660   -7.0830 O       563 WAT       0.2229
    564 WAT       -34.9320  -72.6660   -6.8330 O       564 WAT       0.1693
    565 WAT       -34.9320  -72.6660   -6.5830 O       565 WAT       0.0902
    566 WAT       -34.9320  -72.4160   -7.8330 O       566 WAT       0.0850
    567 WAT       -34.9320  -72.4160   -7.5830 O       567 WAT       0.2110
    568 WAT       -34.9320  -72.4160   -7.3330 O       568 WAT       0.3344
    569 WAT       -34.9320  -72.4160   -7.0830 O       569 WAT       0.3462
    570 WAT       -34.9320  -72.4160   -6.8330 O       570 WAT       0.2393
    571 WAT       -34.9320  -72.4160   -6.5830 O       571 WAT       0.1136
    572 WAT       -34.9320  -72.1660   -7.8330 O       572 WAT       0.1326
    573 WAT       -34.9320  -72.1660   -7.5830 O       573 WAT       0.3077
    574 WAT       -34.9320  -72.1660   -7.3330 O       574 WAT       0.4559
    575 WAT       -34.9320  -72.1660   -7.0830 O       575 WAT       0.4381
    576 WAT       -34.9320  -72.1660   -6.8330 O       576 WAT       0.2778
    577 WAT       -34.9320  -72.1660   -6.5830 O       577 WAT       0.1188
    578 WAT       -34.9320  -71.9160   -8.0830 O       578 WAT       0.0457
    579 WAT       -34.9320  -71.9160   -7.8330 O       579 WAT       0.1630
    580 WAT       -34.9320  -71.9160   -7.5830 O       580 WAT       0.3575
    581 WAT       -34.9320  -71.9160   -7.3330 O       581 WAT       0.4983
    582 WAT       -34.9320  -71.9160   -7.0830 O       582 WAT       0.4471
    583 WAT       -34.9320  -71.9160   -6.8330 O       583 WAT       0.2620
    584 WAT       -34.9320  -71.9160   -6.5830 O       584 WAT       0.1017
    585 WAT       -34.9320  -71.6660   -8.0830 O       585 WAT       0.0457
    586 WAT       -34.9320  -71.6660   -7.8330 O       586 WAT       0.1556
    587 WAT       -34.9320  -71.6660   -7.5830 O       587 WAT       0.3259
    588 WAT       -34.9320  -71.6660   -7.3330 O       588 WAT       0.4314
    589 WAT       -34.9320  -71.6660   -7.0830 O       589 WAT       0.3649
    590 WAT       -34.9320  -71.6660   -6.8330 O       590 WAT       0.1995
    591 WAT       -34.9320  -71.6660   -6.5830 O       591 WAT       0.0708
    592 WAT       -34.9320  -71.4160   -7.8330 O       592 WAT       0.1135
    593 WAT       -34.9320  -71.4160   -7.5830 O       593 WAT       0.2296
    594 WAT       -34.9320  -71.4160   -7.3330 O       594 WAT       0.2920
    595 WAT       -34.9320  -71.4160   -7.0830 O       595 WAT       0.2358
    596 WAT       -34.9320  -71.4160   -6.8330 O       596 WAT       0.1217
    597 WAT       -34.9320  -71.1660   -7.8330 O       597 WAT       0.0626
    598 WAT       -34.9320  -71.1660   -7.5830 O       598 WAT       0.1238
    599 WAT       -34.9320  -71.1660   -7.3330 O       599 WAT       0.1531
    600 WAT       -34.9320  -71.1660   -7.0830 O       600 WAT       0.1197
    601 WAT       -34.9320  -71.1660   -6.8330 O       601 WAT       0.0590
    602 WAT       -34.9320  -70.9160   -7.5830 O       602 WAT       0.0505
    603 WAT       -34.9320  -70.9160   -7.3330 O       603 WAT       0.0617
    604 WAT       -34.9320  -70.9160   -7.0830 O       604 WAT       0.0474
    605 WAT       -34.6820  -75.4160   -3.5830 O       605 WAT       0.0460
    606 WAT       -34.6820  -75.4160   -3.3330 O       606 WAT       0.0607
    607 WAT       -34.6820  -75.4160   -3.0830 O       607 WAT       0.0566
    608 WAT       -34.6820  -75.1660   -3.5830 O       608 WAT       0.0620
    609 WAT       -34.6820  -75.1660   -3.3330 O       609 WAT       0.0780
    610 WAT       -34.6820  -75.1660   -3.0830 O       610 WAT       0.0705
    611 WAT       -34.6820  -75.1660   -2.8330 O       611 WAT       0.0452
    612 WAT       -34.6820  -74.9160   -3.5830 O       612 WAT       0.0652
    613 WAT       -34.6820  -74.9160   -3.3330 O       613 WAT       0.0794
    614 WAT       -34.6820  -74.9160   -3.0830 O       614 WAT       0.0702
    615 WAT       -34.6820  -74.6660   -3.5830 O       615 WAT       0.0576
    616 WAT       -34.6820  -74.6660   -3.3330 O       616 WAT       0.0695
    617 WAT       -34.6820  -74.6660   -3.0830 O       617 WAT       0.0611
    618 WAT       -34.6820  -74.4160   -3.5830 O       618 WAT       0.0457
    619 WAT       -34.6820  -74.4160   -3.3330 O       619 WAT       0.0555
    620 WAT       -34.6820  -74.4160   -3.0830 O       620 WAT       0.0490
    621 WAT       -34.6820  -73.6660   -4.8330 O       621 WAT       0.0556
    622 WAT       -34.6820  -73.6660   -4.5830 O       622 WAT       0.0531
    623 WAT       -34.6820  -73.4160   -5.0830 O       623 WAT       0.0475
    624 WAT       -34.6820  -73.4160   -4.8330 O       624 WAT       0.0629
    625 WAT       -34.6820  -73.4160   -4.5830 O       625 WAT       0.0608
    626 WAT       -34.6820  -73.1660   -4.8330 O       626 WAT       0.0525
    627 WAT       -34.6820  -73.1660   -4.5830 O       627 WAT       0.0516
    628 WAT       -34.6820  -72.9160   -7.3330 O       628 WAT       0.0703
    629 WAT       -34.6820  -72.9160   -7.0830 O       629 WAT       0.0803
    630 WAT       -34.6820  -72.9160   -6.8330 O       630 WAT       0.0617
    631 WAT       -34.6820  -72.6660   -7.5830 O       631 WAT       0.0978
    632 WAT       -34.6820  -72.6660   -7.3330 O       632 WAT       0.1591
    633 WAT       -34.6820  -72.6660   -7.0830 O       633 WAT       0.1680
    634 WAT       -34.6820  -72.6660   -6.8330 O       634 WAT       0.1179
    635 WAT       -34.6820  -72.6660   -6.5830 O       635 WAT       0.0565
    636 WAT       -34.6820  -72.4160   -7.8330 O       636 WAT       0.0787
    637 WAT       -34.6820  -72.4160   -7.5830 O       637 WAT       0.1889
    638 WAT       -34.6820  -72.4160   -7.3330 O       638 WAT       0.2873
    639 WAT       -34.6820  -72.4160   -7.0830 O       639 WAT       0.2825
    640 WAT       -34.6820  -72.4160   -6.8330 O       640 WAT       0.1829
    641 WAT       -34.6820  -72.4160   -6.5830 O       641 WAT       0.0795
    642 WAT       -34.6820  -72.1660   -7.8330 O       642 WAT       0.1280
    643 WAT       -34.6820  -72.1660   -7.5830 O       643 WAT       0.2879
    644 WAT       -34.6820  -72.1660   -7.3330 O       644 WAT       0.4108
    645 WAT       -34.6820  -72.1660   -7.0830 O       645 WAT       0.3776
    646 WAT       -34.6820  -72.1660   -6.8330 O       646 WAT       0.2267
    647 WAT       -34.6820  -72.1660   -6.5830 O       647 WAT       0.0902
    648 WAT       -34.6820  -71.9160   -8.0830 O       648 WAT       0.0465
    649 WAT       -34.6820  -71.9160   -7.8330 O       649 WAT       0.1613
    650 WAT       -34.6820  -71.9160   -7.5830 O       650 WAT       0.3433
    651 WAT       -34.6820  -71.9160   -7.3330 O       651 WAT       0.4625
    652 WAT       -34.6820  -71.9160   -7.0830 O       652 WAT       0.3991
    653 WAT       -34.6820  -71.9160   -6.8330 O       653 WAT       0.2233
    654 WAT       -34.6820  -71.9160   -6.5830 O       654 WAT       0.0818
    655 WAT       -34.6820  -71.6660   -8.0830 O       655 WAT       0.0468
    656 WAT       -34.6820  -71.6660   -7.8330 O       656 WAT       0.1551
    657 WAT       -34.6820  -71.6660   -7.5830 O       657 WAT       0.3161
    658 WAT       -34.6820  -71.6660   -7.3330 O       658 WAT       0.4056
    659 WAT       -34.6820  -71.6660   -7.0830 O       659 WAT       0.3315
    660 WAT       -34.6820  -71.6660   -6.8330 O       660 WAT       0.1743
    661 WAT       -34.6820  -71.6660   -6.5830 O       661 WAT       0.0589
    662 WAT       -34.6820  -71.4160   -7.8330 O       662 WAT       0.1125
    663 WAT       -34.6820  -71.4160   -7.5830 O       663 WAT       0.2217
    664 WAT       -34.6820  -71.4160   -7.3330 O       664 WAT       0.2741
    665 WAT       -34.6820  -71.4160   -7.0830 O       665 WAT       0.2146
    666 WAT       -34.6820  -71.4160   -6.8330 O       666 WAT       0.1071
    667 WAT       -34.6820  -71.1660   -7.8330 O       667 WAT       0.0608
    668 WAT       -34.6820  -71.1660   -7.5830 O       668 WAT       0.1175
    669 WAT       -34.6820  -71.1660   -7.3330 O       669 WAT       0.1417
    670 WAT       -34.6820  -71.1660   -7.0830 O       670 WAT       0.1077
    671 WAT       -34.6820  -71.1660   -6.8330 O       671 WAT       0.0515
    672 WAT       -34.6820  -70.9160   -7.5830 O       672 WAT       0.0465
    673 WAT       -34.6820  -70.9160   -7.3330 O       673 WAT       0.0557
    674 WAT       -34.4320  -75.4160   -3.5830 O       674 WAT       0.0520
    675 WAT       -34.4320  -75.4160   -3.3330 O       675 WAT       0.0705
    676 WAT       -34.4320  -75.4160   -3.0830 O       676 WAT       0.0683
    677 WAT       -34.4320  -75.4160   -2.8330 O       677 WAT       0.0464
    678 WAT       -34.4320  -75.1660   -3.5830 O       678 WAT       0.0665
    679 WAT       -34.4320  -75.1660   -3.3330 O       679 WAT       0.0868
    680 WAT       -34.4320  -75.1660   -3.0830 O       680 WAT       0.0826
    681 WAT       -34.4320  -75.1660   -2.8330 O       681 WAT       0.0560
    682 WAT       -34.4320  -74.9160   -3.5830 O       682 WAT       0.0617
    683 WAT       -34.4320  -74.9160   -3.3330 O       683 WAT       0.0786
    684 WAT       -34.4320  -74.9160   -3.0830 O       684 WAT       0.0744
    685 WAT       -34.4320  -74.9160   -2.8330 O       685 WAT       0.0513
    686 WAT       -34.4320  -74.6660   -3.3330 O       686 WAT       0.0558
    687 WAT       -34.4320  -74.6660   -3.0830 O       687 WAT       0.0538
    688 WAT       -34.4320  -72.6660   -7.5830 O       688 WAT       0.0528
    689 WAT       -34.4320  -72.6660   -7.3330 O       689 WAT       0.0834
    690 WAT       -34.4320  -72.6660   -7.0830 O       690 WAT       0.0840
    691 WAT       -34.4320  -72.6660   -6.8330 O       691 WAT       0.0553
    692 WAT       -34.4320  -72.4160   -7.8330 O       692 WAT       0.0464
    693 WAT       -34.4320  -72.4160   -7.5830 O       693 WAT       0.1092
    694 WAT       -34.4320  -72.4160   -7.3330 O       694 WAT       0.1607
    695 WAT       -34.4320  -72.4160   -7.0830 O       695 WAT       0.1514
    696 WAT       -34.4320  -72.4160   -6.8330 O       696 WAT       0.0928
    697 WAT       -34.4320  -72.1660   -7.8330 O       697 WAT       0.0794
    698 WAT       -34.4320  -72.1660   -7.5830 O       698 WAT       0.1744
    699 WAT       -34.4320  -72.1660   -7.3330 O       699 WAT       0.2409
    700 WAT       -34.4320  -72.1660   -7.0830 O       700 WAT       0.2129
    701 WAT       -34.4320  -72.1660   -6.8330 O       701 WAT       0.1219
    702 WAT       -34.4320  -71.9160   -7.8330 O       702 WAT       0.1033
    703 WAT       -34.4320  -71.9160   -7.5830 O       703 WAT       0.2145
    704 WAT       -34.4320  -71.9160   -7.3330 O       704 WAT       0.2802
    705 WAT       -34.4320  -71.9160   -7.0830 O       705 WAT       0.2334
    706 WAT       -34.4320  -71.9160   -6.8330 O       706 WAT       0.1252
    707 WAT       -34.4320  -71.6660   -7.8330 O       707 WAT       0.1010
    708 WAT       -34.4320  -71.6660   -7.5830 O       708 WAT       0.2009
    709 WAT       -34.4320  -71.6660   -7.3330 O       709 WAT       0.2505
    710 WAT       -34.4320  -71.6660   -7.0830 O       710 WAT       0.1982
    711 WAT       -34.4320  -71.6660   -6.8330 O       711 WAT       0.1004
    712 WAT       -34.4320  -71.4160   -7.8330 O       712 WAT       0.0734
    713 WAT       -34.4320  -71.4160   -7.5830 O       713 WAT       0.1415
    714 WAT       -34.4320  -71.4160   -7.3330 O       714 WAT       0.1704
    715 WAT       -34.4320  -71.4160   -7.0830 O       715 WAT       0.1296
    716 WAT       -34.4320  -71.4160   -6.8330 O       716 WAT       0.0623
    717 WAT       -34.4320  -71.1660   -7.5830 O       717 WAT       0.0744
    718 WAT       -34.4320  -71.1660   -7.3330 O       718 WAT       0.0878
    719 WAT       -34.4320  -71.1660   -7.0830 O       719 WAT       0.0649
    720 WAT       -34.1820  -75.4160   -3.5830 O       720 WAT       0.0462
    721 WAT       -34.1820  -75.4160   -3.3330 O       721 WAT       0.0624
    722 WAT       -34.1820  -75.4160   -3.0830 O       722 WAT       0.0612
    723 WAT       -34.1820  -75.1660   -3.5830 O       723 WAT       0.0606
    724 WAT       -34.1820  -75.1660   -3.3330 O       724 WAT       0.0795
    725 WAT       -34.1820  -75.1660   -3.0830 O       725 WAT       0.0772
    726 WAT       -34.1820  -75.1660   -2.8330 O       726 WAT       0.0542
    727 WAT       -34.1820  -74.9160   -3.5830 O       727 WAT       0.0558
    728 WAT       -34.1820  -74.9160   -3.3330 O       728 WAT       0.0725
    729 WAT       -34.1820  -74.9160   -3.0830 O       729 WAT       0.0717
    730 WAT       -34.1820  -74.9160   -2.8330 O       730 WAT       0.0530
    731 WAT       -34.1820  -74.6660   -3.3330 O       731 WAT       0.0503
    732 WAT       -34.1820  -74.6660   -3.0830 O       732 WAT       0.0534
    733 WAT       -34.1820  -72.4160   -7.3330 O       733 WAT       0.0588
    734 WAT       -34.1820  -72.4160   -7.0830 O       734 WAT       0.0540
    735 WAT       -34.1820  -72.1660   -7.5830 O       735 WAT       0.0686
    736 WAT       -34.1820  -72.1660   -7.3330 O       736 WAT       0.0928
    737 WAT       -34.1820  -72.1660   -7.0830 O       737 WAT       0.0796
    738 WAT       -34.1820  -71.9160   -7.5830 O       738 WAT       0.0879
    739 WAT       -34.1820  -71.9160   -7.3330 O       739 WAT       0.1123
    740 WAT       -34.1820  -71.9160   -7.0830 O       740 WAT       0.0909
    741 WAT       -34.1820  -71.9160   -6.8330 O       741 WAT       0.0467
    742 WAT       -34.1820  -71.6660   -7.5830 O       742 WAT       0.0846
    743 WAT       -34.1820  -71.6660   -7.3330 O       743 WAT       0.1034
    744 WAT       -34.1820  -71.6660   -7.0830 O       744 WAT       0.0797
    745 WAT       -34.1820  -71.4160   -7.5830 O       745 WAT       0.0607
    746 WAT       -34.1820  -71.4160   -7.3330 O       746 WAT       0.0719
    747 WAT       -34.1820  -71.4160   -7.0830 O       747 WAT       0.0535
    748 WAT       -33.9320  -75.1660   -3.3330 O       748 WAT       0.0564
    749 WAT       -33.9320  -75.1660   -3.0830 O       749 WAT       0.0554
    750 WAT       -33.9320  -74.9160   -3.3330 O       750 WAT       0.0559
    751 WAT       -33.9320  -74.9160   -3.0830 O       751 WAT       0.0579
    752 WAT       -33.9320  -74.9160   -2.8330 O       752 WAT       0.0467
    753 WAT       -33.9320  -74.6660   -3.0830 O       753 WAT       0.0521
    754 WAT       -33.9320  -74.6660   -2.8330 O       754 WAT       0.0510
    755 WAT       -33.9320  -74.4160   -3.0830 O       755 WAT       0.0470
    756 WAT       -33.9320  -74.4160   -2.8330 O       756 WAT       0.0572
    757 WAT       -33.9320  -74.4160   -2.5830 O       757 WAT       0.0546
    758 WAT       -33.9320  -74.1660   -2.8330 O       758 WAT       0.0615
    759 WAT       -33.9320  -74.1660   -2.5830 O       759 WAT       0.0666
    760 WAT       -33.9320  -74.1660   -2.3330 O       760 WAT       0.0533
    761 WAT       -33.9320  -73.9160   -2.8330 O       761 WAT       0.0576
    762 WAT       -33.9320  -73.9160   -2.5830 O       762 WAT       0.0673
    763 WAT       -33.9320  -73.9160   -2.3330 O       763 WAT       0.0586
    764 WAT       -33.9320  -73.6660   -2.8330 O       764 WAT       0.0459
    765 WAT       -33.9320  -73.6660   -2.5830 O       765 WAT       0.0569
    766 WAT       -33.9320  -73.6660   -2.3330 O       766 WAT       0.0532
    767 WAT       -33.6820  -74.6660   -3.0830 O       767 WAT       0.0486
    768 WAT       -33.6820  -74.6660   -2.8330 O       768 WAT       0.0552
    769 WAT       -33.6820  -74.6660   -2.5830 O       769 WAT       0.0490
    770 WAT       -33.6820  -74.4160   -3.0830 O       770 WAT       0.0621
    771 WAT       -33.6820  -74.4160   -2.8330 O       771 WAT       0.0823
    772 WAT       -33.6820  -74.4160   -2.5830 O       772 WAT       0.0824
    773 WAT       -33.6820  -74.4160   -2.3330 O       773 WAT       0.0601
    774 WAT       -33.6820  -74.1660   -3.0830 O       774 WAT       0.0757
    775 WAT       -33.6820  -74.1660   -2.8330 O       775 WAT       0.1065
    776 WAT       -33.6820  -74.1660   -2.5830 O       776 WAT       0.1121
    777 WAT       -33.6820  -74.1660   -2.3330 O       777 WAT       0.0860
    778 WAT       -33.6820  -74.1660   -2.0830 O       778 WAT       0.0468
    779 WAT       -33.6820  -73.9160   -3.0830 O       779 WAT       0.0800
    780 WAT       -33.6820  -73.9160   -2.8330 O       780 WAT       0.1116
    781 WAT       -33.6820  -73.9160   -2.5830 O       781 WAT       0.1179
    782 WAT       -33.6820  -73.9160   -2.3330 O       782 WAT       0.0925
    783 WAT       -33.6820  -73.9160   -2.0830 O       783 WAT       0.0523
    784 WAT       -33.6820  -73.6660   -3.0830 O       784 WAT       0.0706
    785 WAT       -33.6820  -73.6660   -2.8330 O       785 WAT       0.0942
    786 WAT       -33.6820  -73.6660   -2.5830 O       786 WAT       0.0972
    787 WAT       -33.6820  -73.6660   -2.3330 O       787 WAT       0.0765
    788 WAT       -33.6820  -73.4160   -3.0830 O       788 WAT       0.0544
    789 WAT       -33.6820  -73.4160   -2.8330 O       789 WAT       0.0688
    790 WAT       -33.6820  -73.4160   -2.5830 O       790 WAT       0.0684
    791 WAT       -33.6820  -73.4160   -2.3330 O       791 WAT       0.0535
    792 WAT       -33.6820  -73.1660   -2.8330 O       792 WAT       0.0502
    793 WAT       -33.6820  -73.1660   -2.5830 O       793 WAT       0.0480
    794 WAT       -33.6820  -70.4160   -6.5830 O       794 WAT       0.0525
    795 WAT       -33.6820  -70.4160   -6.3330 O       795 WAT       0.0523
    796 WAT       -33.6820  -70.1660   -6.5830 O       796 WAT       0.0484
    797 WAT       -33.6820  -70.1660   -6.3330 O       797 WAT       0.0485
    798 WAT       -33.4320  -74.6660   -2.8330 O       798 WAT       0.0532
    799 WAT       -33.4320  -74.6660   -2.5830 O       799 WAT       0.0502
    800 WAT       -33.4320  -74.4160   -3.0830 O       800 WAT       0.0760
    801 WAT       -33.4320  -74.4160   -2.8330 O       801 WAT       0.1013
    802 WAT       -33.4320  -74.4160   -2.5830 O       802 WAT       0.1002
    803 WAT       -33.4320  -74.4160   -2.3330 O       803 WAT       0.0715
    804 WAT       -33.4320  -74.1660   -3.3330 O       804 WAT       0.0682
    805 WAT       -33.4320  -74.1660   -3.0830 O       805 WAT       0.1187
    806 WAT       -33.4320  -74.1660   -2.8330 O       806 WAT       0.1563
    807 WAT       -33.4320  -74.1660   -2.5830 O       807 WAT       0.1528
    808 WAT       -33.4320  -74.1660   -2.3330 O       808 WAT       0.1089
    809 WAT       -33.4320  -74.1660   -2.0830 O       809 WAT       0.0552
    810 WAT       -33.4320  -73.9160   -3.3330 O       810 WAT       0.0919
    811 WAT       -33.4320  -73.9160   -3.0830 O       811 WAT       0.1520
    812 WAT       -33.4320  -73.9160   -2.8330 O       812 WAT       0.1885
    813 WAT       -33.4320  -73.9160   -2.5830 O       813 WAT       0.1751
    814 WAT       -33.4320  -73.9160   -2.3330 O       814 WAT       0.1207
    815 WAT       -33.4320  -73.9160   -2.0830 O       815 WAT       0.0603
    816 WAT       -33.4320  -73.6660   -3.5830 O       816 WAT       0.0479
    817 WAT       -33.4320  -73.6660   -3.3330 O       817 WAT       0.1012
    818 WAT       -33.4320  -73.6660   -3.0830 O       818 WAT       0.1558
    819 WAT       -33.4320  -73.6660   -2.8330 O       819 WAT       0.1776
    820 WAT       -33.4320  -73.6660   -2.5830 O       820 WAT       0.1525
    821 WAT       -33.4320  -73.6660   -2.3330 O       821 WAT       0.0991
    822 WAT       -33.4320  -73.6660   -2.0830 O       822 WAT       0.0478
    823 WAT       -33.4320  -73.4160   -3.3330 O       823 WAT       0.0909
    824 WAT       -33.4320  -73.4160   -3.0830 O       824 WAT       0.1309
    825 WAT       -33.4320  -73.4160   -2.8330 O       825 WAT       0.1369
    826 WAT       -33.4320  -73.4160   -2.5830 O       826 WAT       0.1074
    827 WAT       -33.4320  -73.4160   -2.3330 O       827 WAT       0.0645
    828 WAT       -33.4320  -73.1660   -3.3330 O       828 WAT       0.0707
    829 WAT       -33.4320  -73.1660   -3.0830 O       829 WAT       0.0978
    830 WAT       -33.4320  -73.1660   -2.8330 O       830 WAT       0.0962
    831 WAT       -33.4320  -73.1660   -2.5830 O       831 WAT       0.0698
    832 WAT       -33.4320  -72.9160   -3.3330 O       832 WAT       0.0515
    833 WAT       -33.4320  -72.9160   -3.0830 O       833 WAT       0.0711
    834 WAT       -33.4320  -72.9160   -2.8330 O       834 WAT       0.0684
    835 WAT       -33.4320  -72.9160   -2.5830 O       835 WAT       0.0473
    836 WAT       -33.4320  -72.6660   -3.0830 O       836 WAT       0.0484
    837 WAT       -33.4320  -72.6660   -2.8330 O       837 WAT       0.0463
    838 WAT       -33.4320  -70.9160   -6.8330 O       838 WAT       0.0464
    839 WAT       -33.4320  -70.9160   -6.5830 O       839 WAT       0.0664
    840 WAT       -33.4320  -70.9160   -6.3330 O       840 WAT       0.0754
    841 WAT       -33.4320  -70.9160   -6.0830 O       841 WAT       0.0598
    842 WAT       -33.4320  -70.6660   -7.0830 O       842 WAT       0.0465
    843 WAT       -33.4320  -70.6660   -6.8330 O       843 WAT       0.0793
    844 WAT       -33.4320  -70.6660   -6.5830 O       844 WAT       0.1162
    845 WAT       -33.4320  -70.6660   -6.3330 O       845 WAT       0.1280
    846 WAT       -33.4320  -70.6660   -6.0830 O       846 WAT       0.0966
    847 WAT       -33.4320  -70.6660   -5.8330 O       847 WAT       0.0471
    848 WAT       -33.4320  -70.4160   -7.0830 O       848 WAT       0.0551
    849 WAT       -33.4320  -70.4160   -6.8330 O       849 WAT       0.1008
    850 WAT       -33.4320  -70.4160   -6.5830 O       850 WAT       0.1500
    851 WAT       -33.4320  -70.4160   -6.3330 O       851 WAT       0.1620
    852 WAT       -33.4320  -70.4160   -6.0830 O       852 WAT       0.1180
    853 WAT       -33.4320  -70.4160   -5.8330 O       853 WAT       0.0554
    854 WAT       -33.4320  -70.1660   -7.0830 O       854 WAT       0.0474
    855 WAT       -33.4320  -70.1660   -6.8330 O       855 WAT       0.0920
    856 WAT       -33.4320  -70.1660   -6.5830 O       856 WAT       0.1388
    857 WAT       -33.4320  -70.1660   -6.3330 O       857 WAT       0.1483
    858 WAT       -33.4320  -70.1660   -6.0830 O       858 WAT       0.1056
    859 WAT       -33.4320  -70.1660   -5.8330 O       859 WAT       0.0482
    860 WAT       -33.4320  -69.9160   -6.8330 O       860 WAT       0.0586
    861 WAT       -33.4320  -69.9160   -6.5830 O       861 WAT       0.0898
    862 WAT       -33.4320  -69.9160   -6.3330 O       862 WAT       0.0955
    863 WAT       -33.4320  -69.9160   -6.0830 O       863 WAT       0.0671
    864 WAT       -33.1820  -74.4160   -3.3330 O       864 WAT       0.0486
    865 WAT       -33.1820  -74.4160   -3.0830 O       865 WAT       0.0815
    866 WAT       -33.1820  -74.4160   -2.8330 O       866 WAT       0.1032
    867 WAT       -33.1820  -74.4160   -2.5830 O       867 WAT       0.0962
    868 WAT       -33.1820  -74.4160   -2.3330 O       868 WAT       0.0647
    869 WAT       -33.1820  -74.1660   -3.5830 O       869 WAT       0.0457
    870 WAT       -33.1820  -74.1660   -3.3330 O       870 WAT       0.0981
    871 WAT       -33.1820  -74.1660   -3.0830 O       871 WAT       0.1588
    872 WAT       -33.1820  -74.1660   -2.8330 O       872 WAT       0.1904
    873 WAT       -33.1820  -74.1660   -2.5830 O       873 WAT       0.1680
    874 WAT       -33.1820  -74.1660   -2.3330 O       874 WAT       0.1080
    875 WAT       -33.1820  -74.1660   -2.0830 O       875 WAT       0.0498
    876 WAT       -33.1820  -73.9160   -3.5830 O       876 WAT       0.0761
    877 WAT       -33.1820  -73.9160   -3.3330 O       877 WAT       0.1585
    878 WAT       -33.1820  -73.9160   -3.0830 O       878 WAT       0.2412
    879 WAT       -33.1820  -73.9160   -2.8330 O       879 WAT       0.2675
    880 WAT       -33.1820  -73.9160   -2.5830 O       880 WAT       0.2174
    881 WAT       -33.1820  -73.9160   -2.3330 O       881 WAT       0.1297
    882 WAT       -33.1820  -73.9160   -2.0830 O       882 WAT       0.0562
    883 WAT       -33.1820  -73.6660   -3.5830 O       883 WAT       0.0982
    884 WAT       -33.1820  -73.6660   -3.3330 O       884 WAT       0.1968
    885 WAT       -33.1820  -73.6660   -3.0830 O       885 WAT       0.2804
    886 WAT       -33.1820  -73.6660   -2.8330 O       886 WAT       0.2856
    887 WAT       -33.1820  -73.6660   -2.5830 O       887 WAT       0.2108
    888 WAT       -33.1820  -73.6660   -2.3330 O       888 WAT       0.1142
    889 WAT       -33.1820  -73.6660   -2.0830 O       889 WAT       0.0451
    890 WAT       -33.1820  -73.4160   -3.5830 O       890 WAT       0.0977
    891 WAT       -33.1820  -73.4160   -3.3330 O       891 WAT       0.1884
    892 WAT       -33.1820  -73.4160   -3.0830 O       892 WAT       0.2530
    893 WAT       -33.1820  -73.4160   -2.8330 O       893 WAT       0.2378
    894 WAT       -33.1820  -73.4160   -2.5830 O       894 WAT       0.1592
    895 WAT       -33.1820  -73.4160   -2.3330 O       895 WAT       0.0772
    896 WAT       -33.1820  -73.1660   -3.5830 O       896 WAT       0.0779
    897 WAT       -33.1820  -73.1660   -3.3330 O       897 WAT       0.1467
    898 WAT       -33.1820  -73.1660   -3.0830 O       898 WAT       0.1887
    899 WAT       -33.1820  -73.1660   -2.8330 O       899 WAT       0.1667
    900 WAT       -33.1820  -73.1660   -2.5830 O       900 WAT       0.1025
    901 WAT       -33.1820  -72.9160   -3.5830 O       901 WAT       0.0536
    902 WAT       -33.1820  -72.9160   -3.3330 O       902 WAT       0.1011
    903 WAT       -33.1820  -72.9160   -3.0830 O       903 WAT       0.1283
    904 WAT       -33.1820  -72.9160   -2.8330 O       904 WAT       0.1096
    905 WAT       -33.1820  -72.9160   -2.5830 O       905 WAT       0.0636
    906 WAT       -33.1820  -72.6660   -3.3330 O       906 WAT       0.0634
    907 WAT       -33.1820  -72.6660   -3.0830 O       907 WAT       0.0807
    908 WAT       -33.1820  -72.6660   -2.8330 O       908 WAT       0.0682
    909 WAT       -33.1820  -71.1660   -6.5830 O       909 WAT       0.0655
    910 WAT       -33.1820  -71.1660   -6.3330 O       910 WAT       0.0884
    911 WAT       -33.1820  -71.1660   -6.0830 O       911 WAT       0.0826
    912 WAT       -33.1820  -71.1660   -5.8330 O       912 WAT       0.0504
    913 WAT       -33.1820  -70.9160   -6.8330 O       913 WAT       0.0843
    914 WAT       -33.1820  -70.9160   -6.5830 O       914 WAT       0.1419
    915 WAT       -33.1820  -70.9160   -6.3330 O       915 WAT       0.1796
    916 WAT       -33.1820  -70.9160   -6.0830 O       916 WAT       0.1553
    917 WAT       -33.1820  -70.9160   -5.8330 O       917 WAT       0.0876
    918 WAT       -33.1820  -70.6660   -7.0830 O       918 WAT       0.0717
    919 WAT       -33.1820  -70.6660   -6.8330 O       919 WAT       0.1431
    920 WAT       -33.1820  -70.6660   -6.5830 O       920 WAT       0.2368
    921 WAT       -33.1820  -70.6660   -6.3330 O       921 WAT       0.2845
    922 WAT       -33.1820  -70.6660   -6.0830 O       922 WAT       0.2306
    923 WAT       -33.1820  -70.6660   -5.8330 O       923 WAT       0.1219
    924 WAT       -33.1820  -70.4160   -7.0830 O       924 WAT       0.0874
    925 WAT       -33.1820  -70.4160   -6.8330 O       925 WAT       0.1814
    926 WAT       -33.1820  -70.4160   -6.5830 O       926 WAT       0.2968
    927 WAT       -33.1820  -70.4160   -6.3330 O       927 WAT       0.3431
    928 WAT       -33.1820  -70.4160   -6.0830 O       928 WAT       0.2649
    929 WAT       -33.1820  -70.4160   -5.8330 O       929 WAT       0.1328
    930 WAT       -33.1820  -70.1660   -7.0830 O       930 WAT       0.0778
    931 WAT       -33.1820  -70.1660   -6.8330 O       931 WAT       0.1668
    932 WAT       -33.1820  -70.1660   -6.5830 O       932 WAT       0.2710
    933 WAT       -33.1820  -70.1660   -6.3330 O       933 WAT       0.3056
    934 WAT       -33.1820  -70.1660   -6.0830 O       934 WAT       0.2282
    935 WAT       -33.1820  -70.1660   -5.8330 O       935 WAT       0.1101
    936 WAT       -33.1820  -69.9160   -7.0830 O       936 WAT       0.0491
    937 WAT       -33.1820  -69.9160   -6.8330 O       937 WAT       0.1083
    938 WAT       -33.1820  -69.9160   -6.5830 O       938 WAT       0.1758
    939 WAT       -33.1820  -69.9160   -6.3330 O       939 WAT       0.1954
    940 WAT       -33.1820  -69.9160   -6.0830 O       940 WAT       0.1430
    941 WAT       -33.1820  -69.9160   -5.8330 O       941 WAT       0.0671
    942 WAT       -33.1820  -69.6660   -6.8330 O       942 WAT       0.0486
    943 WAT       -33.1820  -69.6660   -6.5830 O       943 WAT       0.0795
    944 WAT       -33.1820  -69.6660   -6.3330 O       944 WAT       0.0879
    945 WAT       -33.1820  -69.6660   -6.0830 O       945 WAT       0.0635
    946 WAT       -32.9320  -74.6660   -5.8330 O       946 WAT       0.0470
    947 WAT       -32.9320  -74.6660   -5.5830 O       947 WAT       0.0630
    948 WAT       -32.9320  -74.6660   -5.3330 O       948 WAT       0.0643
    949 WAT       -32.9320  -74.6660   -5.0830 O       949 WAT       0.0512
    950 WAT       -32.9320  -74.4160   -5.8330 O       950 WAT       0.0606
    951 WAT       -32.9320  -74.4160   -5.5830 O       951 WAT       0.0766
    952 WAT       -32.9320  -74.4160   -5.3330 O       952 WAT       0.0756
    953 WAT       -32.9320  -74.4160   -5.0830 O       953 WAT       0.0596
    954 WAT       -32.9320  -74.4160   -3.3330 O       954 WAT       0.0454
    955 WAT       -32.9320  -74.4160   -3.0830 O       955 WAT       0.0724
    956 WAT       -32.9320  -74.4160   -2.8330 O       956 WAT       0.0847
    957 WAT       -32.9320  -74.4160   -2.5830 O       957 WAT       0.0722
    958 WAT       -32.9320  -74.1660   -6.0830 O       958 WAT       0.0454
    959 WAT       -32.9320  -74.1660   -5.8330 O       959 WAT       0.0662
    960 WAT       -32.9320  -74.1660   -5.5830 O       960 WAT       0.0776
    961 WAT       -32.9320  -74.1660   -5.3330 O       961 WAT       0.0730
    962 WAT       -32.9320  -74.1660   -5.0830 O       962 WAT       0.0554
    963 WAT       -32.9320  -74.1660   -3.5830 O       963 WAT       0.0539
    964 WAT       -32.9320  -74.1660   -3.3330 O       964 WAT       0.1120
    965 WAT       -32.9320  -74.1660   -3.0830 O       965 WAT       0.1695
    966 WAT       -32.9320  -74.1660   -2.8330 O       966 WAT       0.1853
    967 WAT       -32.9320  -74.1660   -2.5830 O       967 WAT       0.1462
    968 WAT       -32.9320  -74.1660   -2.3330 O       968 WAT       0.0832
    969 WAT       -32.9320  -73.9160   -6.0830 O       969 WAT       0.0476
    970 WAT       -32.9320  -73.9160   -5.8330 O       970 WAT       0.0619
    971 WAT       -32.9320  -73.9160   -5.5830 O       971 WAT       0.0672
    972 WAT       -32.9320  -73.9160   -5.3330 O       972 WAT       0.0598
    973 WAT       -32.9320  -73.9160   -3.5830 O       973 WAT       0.1021
    974 WAT       -32.9320  -73.9160   -3.3330 O       974 WAT       0.2057
    975 WAT       -32.9320  -73.9160   -3.0830 O       975 WAT       0.2947
    976 WAT       -32.9320  -73.9160   -2.8330 O       976 WAT       0.2992
    977 WAT       -32.9320  -73.9160   -2.5830 O       977 WAT       0.2164
    978 WAT       -32.9320  -73.9160   -2.3330 O       978 WAT       0.1123
    979 WAT       -32.9320  -73.6660   -5.8330 O       979 WAT       0.0498
    980 WAT       -32.9320  -73.6660   -5.5830 O       980 WAT       0.0505
    981 WAT       -32.9320  -73.6660   -3.8330 O       981 WAT       0.0514
    982 WAT       -32.9320  -73.6660   -3.5830 O       982 WAT       0.1426
    983 WAT       -32.9320  -73.6660   -3.3330 O       983 WAT       0.2777
    984 WAT       -32.9320  -73.6660   -3.0830 O       984 WAT       0.3771
    985 WAT       -32.9320  -73.6660   -2.8330 O       985 WAT       0.3560
    986 WAT       -32.9320  -73.6660   -2.5830 O       986 WAT       0.2355
    987 WAT       -32.9320  -73.6660   -2.3330 O       987 WAT       0.1104
    988 WAT       -32.9320  -73.4160   -3.8330 O       988 WAT       0.0543
    989 WAT       -32.9320  -73.4160   -3.5830 O       989 WAT       0.1481
    990 WAT       -32.9320  -73.4160   -3.3330 O       990 WAT       0.2786
    991 WAT       -32.9320  -73.4160   -3.0830 O       991 WAT       0.3598
    992 WAT       -32.9320  -73.4160   -2.8330 O       992 WAT       0.3179
    993 WAT       -32.9320  -73.4160   -2.5830 O       993 WAT       0.1933
    994 WAT       -32.9320  -73.4160   -2.3330 O       994 WAT       0.0816
    995 WAT       -32.9320  -73.1660   -3.5830 O       995 WAT       0.1193
    996 WAT       -32.9320  -73.1660   -3.3330 O       996 WAT       0.2182
    997 WAT       -32.9320  -73.1660   -3.0830 O       997 WAT       0.2705
    998 WAT       -32.9320  -73.1660   -2.8330 O       998 WAT       0.2260
    999 WAT       -32.9320  -73.1660   -2.5830 O       999 WAT       0.1276
   1000 WAT       -32.9320  -73.1660   -2.3330 O      1000 WAT       0.0485
   1001 WAT       -32.9320  -72.9160   -3.5830 O      1001 WAT       0.0805
   1002 WAT       -32.9320  -72.9160   -3.3330 O      1002 WAT       0.1457
   1003 WAT       -32.9320  -72.9160   -3.0830 O      1003 WAT       0.1762
   1004 WAT       -32.9320  -72.9160   -2.8330 O      1004 WAT       0.1416
   1005 WAT       -32.9320  -72.9160   -2.5830 O      1005 WAT       0.0753
   1006 WAT       -32.9320  -72.6660   -3.5830 O      1006 WAT       0.0480
   1007 WAT       -32.9320  -72.6660   -3.3330 O      1007 WAT       0.0872
   1008 WAT       -32.9320  -72.6660   -3.0830 O      1008 WAT       0.1046
   1009 WAT       -32.9320  -72.6660   -2.8330 O      1009 WAT       0.0822
   1010 WAT       -32.9320  -72.4160   -3.0830 O      1010 WAT       0.0524
   1011 WAT       -32.9320  -71.4160   -6.3330 O      1011 WAT       0.0659
   1012 WAT       -32.9320  -71.4160   -6.0830 O      1012 WAT       0.0720
   1013 WAT       -32.9320  -71.4160   -5.8330 O      1013 WAT       0.0513
   1014 WAT       -32.9320  -71.1660   -6.8330 O      1014 WAT       0.0527
   1015 WAT       -32.9320  -71.1660   -6.5830 O      1015 WAT       0.1064
   1016 WAT       -32.9320  -71.1660   -6.3330 O      1016 WAT       0.1584
   1017 WAT       -32.9320  -71.1660   -6.0830 O      1017 WAT       0.1586
   1018 WAT       -32.9320  -71.1660   -5.8330 O      1018 WAT       0.1030
   1019 WAT       -32.9320  -70.9160   -7.0830 O      1019 WAT       0.0494
   1020 WAT       -32.9320  -70.9160   -6.8330 O      1020 WAT       0.1126
   1021 WAT       -32.9320  -70.9160   -6.5830 O      1021 WAT       0.2160
   1022 WAT       -32.9320  -70.9160   -6.3330 O      1022 WAT       0.2992
   1023 WAT       -32.9320  -70.9160   -6.0830 O      1023 WAT       0.2773
   1024 WAT       -32.9320  -70.9160   -5.8330 O      1024 WAT       0.1667
   1025 WAT       -32.9320  -70.9160   -5.5830 O      1025 WAT       0.0635
   1026 WAT       -32.9320  -70.6660   -7.0830 O      1026 WAT       0.0801
   1027 WAT       -32.9320  -70.6660   -6.8330 O      1027 WAT       0.1846
   1028 WAT       -32.9320  -70.6660   -6.5830 O      1028 WAT       0.3398
   1029 WAT       -32.9320  -70.6660   -6.3330 O      1029 WAT       0.4414
   1030 WAT       -32.9320  -70.6660   -6.0830 O      1030 WAT       0.3813
   1031 WAT       -32.9320  -70.6660   -5.8330 O      1031 WAT       0.2136
   1032 WAT       -32.9320  -70.6660   -5.5830 O      1032 WAT       0.0761
   1033 WAT       -32.9320  -70.4160   -7.0830 O      1033 WAT       0.0980
   1034 WAT       -32.9320  -70.4160   -6.8330 O      1034 WAT       0.2284
   1035 WAT       -32.9320  -70.4160   -6.5830 O      1035 WAT       0.4068
   1036 WAT       -32.9320  -70.4160   -6.3330 O      1036 WAT       0.5015
   1037 WAT       -32.9320  -70.4160   -6.0830 O      1037 WAT       0.4087
   1038 WAT       -32.9320  -70.4160   -5.8330 O      1038 WAT       0.2157
   1039 WAT       -32.9320  -70.4160   -5.5830 O      1039 WAT       0.0722
   1040 WAT       -32.9320  -70.1660   -7.0830 O      1040 WAT       0.0883
   1041 WAT       -32.9320  -70.1660   -6.8330 O      1041 WAT       0.2077
   1042 WAT       -32.9320  -70.1660   -6.5830 O      1042 WAT       0.3610
   1043 WAT       -32.9320  -70.1660   -6.3330 O      1043 WAT       0.4283
   1044 WAT       -32.9320  -70.1660   -6.0830 O      1044 WAT       0.3344
   1045 WAT       -32.9320  -70.1660   -5.8330 O      1045 WAT       0.1687
   1046 WAT       -32.9320  -70.1660   -5.5830 O      1046 WAT       0.0534
   1047 WAT       -32.9320  -69.9160   -7.0830 O      1047 WAT       0.0568
   1048 WAT       -32.9320  -69.9160   -6.8330 O      1048 WAT       0.1352
   1049 WAT       -32.9320  -69.9160   -6.5830 O      1049 WAT       0.2315
   1050 WAT       -32.9320  -69.9160   -6.3330 O      1050 WAT       0.2681
   1051 WAT       -32.9320  -69.9160   -6.0830 O      1051 WAT       0.2036
   1052 WAT       -32.9320  -69.9160   -5.8330 O      1052 WAT       0.0995
   1053 WAT       -32.9320  -69.6660   -6.8330 O      1053 WAT       0.0617
   1054 WAT       -32.9320  -69.6660   -6.5830 O      1054 WAT       0.1055
   1055 WAT       -32.9320  -69.6660   -6.3330 O      1055 WAT       0.1207
   1056 WAT       -32.9320  -69.6660   -6.0830 O      1056 WAT       0.0901
   1057 WAT       -32.6820  -74.9160   -5.8330 O      1057 WAT       0.0467
   1058 WAT       -32.6820  -74.9160   -5.5830 O      1058 WAT       0.0642
   1059 WAT       -32.6820  -74.9160   -5.3330 O      1059 WAT       0.0643
   1060 WAT       -32.6820  -74.9160   -5.0830 O      1060 WAT       0.0477
   1061 WAT       -32.6820  -74.6660   -5.8330 O      1061 WAT       0.0713
   1062 WAT       -32.6820  -74.6660   -5.5830 O      1062 WAT       0.0946
   1063 WAT       -32.6820  -74.6660   -5.3330 O      1063 WAT       0.0943
   1064 WAT       -32.6820  -74.6660   -5.0830 O      1064 WAT       0.0714
   1065 WAT       -32.6820  -74.4160   -6.0830 O      1065 WAT       0.0549
   1066 WAT       -32.6820  -74.4160   -5.8330 O      1066 WAT       0.0887
   1067 WAT       -32.6820  -74.4160   -5.5830 O      1067 WAT       0.1112
   1068 WAT       -32.6820  -74.4160   -5.3330 O      1068 WAT       0.1079
   1069 WAT       -32.6820  -74.4160   -5.0830 O      1069 WAT       0.0816
   1070 WAT       -32.6820  -74.4160   -4.8330 O      1070 WAT       0.0491
   1071 WAT       -32.6820  -74.4160   -3.0830 O      1071 WAT       0.0495
   1072 WAT       -32.6820  -74.4160   -2.8330 O      1072 WAT       0.0535
   1073 WAT       -32.6820  -74.1660   -6.0830 O      1073 WAT       0.0642
   1074 WAT       -32.6820  -74.1660   -5.8330 O      1074 WAT       0.0928
   1075 WAT       -32.6820  -74.1660   -5.5830 O      1075 WAT       0.1075
   1076 WAT       -32.6820  -74.1660   -5.3330 O      1076 WAT       0.0995
   1077 WAT       -32.6820  -74.1660   -5.0830 O      1077 WAT       0.0734
   1078 WAT       -32.6820  -74.1660   -3.5830 O      1078 WAT       0.0460
   1079 WAT       -32.6820  -74.1660   -3.3330 O      1079 WAT       0.0935
   1080 WAT       -32.6820  -74.1660   -3.0830 O      1080 WAT       0.1345
   1081 WAT       -32.6820  -74.1660   -2.8330 O      1081 WAT       0.1360
   1082 WAT       -32.6820  -74.1660   -2.5830 O      1082 WAT       0.0968
   1083 WAT       -32.6820  -74.1660   -2.3330 O      1083 WAT       0.0485
   1084 WAT       -32.6820  -73.9160   -6.0830 O      1084 WAT       0.0652
   1085 WAT       -32.6820  -73.9160   -5.8330 O      1085 WAT       0.0829
   1086 WAT       -32.6820  -73.9160   -5.5830 O      1086 WAT       0.0877
   1087 WAT       -32.6820  -73.9160   -5.3330 O      1087 WAT       0.0761
   1088 WAT       -32.6820  -73.9160   -5.0830 O      1088 WAT       0.0537
   1089 WAT       -32.6820  -73.9160   -3.5830 O      1089 WAT       0.0961
   1090 WAT       -32.6820  -73.9160   -3.3330 O      1090 WAT       0.1891
   1091 WAT       -32.6820  -73.9160   -3.0830 O      1091 WAT       0.2593
   1092 WAT       -32.6820  -73.9160   -2.8330 O      1092 WAT       0.2463
   1093 WAT       -32.6820  -73.9160   -2.5830 O      1093 WAT       0.1623
   1094 WAT       -32.6820  -73.9160   -2.3330 O      1094 WAT       0.0746
   1095 WAT       -32.6820  -73.6660   -6.0830 O      1095 WAT       0.0570
   1096 WAT       -32.6820  -73.6660   -5.8330 O      1096 WAT       0.0639
   1097 WAT       -32.6820  -73.6660   -5.5830 O      1097 WAT       0.0615
   1098 WAT       -32.6820  -73.6660   -5.3330 O      1098 WAT       0.0497
   1099 WAT       -32.6820  -73.6660   -3.8330 O      1099 WAT       0.0518
   1100 WAT       -32.6820  -73.6660   -3.5830 O      1100 WAT       0.1427
   1101 WAT       -32.6820  -73.6660   -3.3330 O      1101 WAT       0.2725
   1102 WAT       -32.6820  -73.6660   -3.0830 O      1102 WAT       0.3571
   1103 WAT       -32.6820  -73.6660   -2.8330 O      1103 WAT       0.3196
   1104 WAT       -32.6820  -73.6660   -2.5830 O      1104 WAT       0.1957
   1105 WAT       -32.6820  -73.6660   -2.3330 O      1105 WAT       0.0823
   1106 WAT       -32.6820  -73.4160   -3.8330 O      1106 WAT       0.0569
   1107 WAT       -32.6820  -73.4160   -3.5830 O      1107 WAT       0.1540
   1108 WAT       -32.6820  -73.4160   -3.3330 O      1108 WAT       0.2845
   1109 WAT       -32.6820  -73.4160   -3.0830 O      1109 WAT       0.3571
   1110 WAT       -32.6820  -73.4160   -2.8330 O      1110 WAT       0.3025
   1111 WAT       -32.6820  -73.4160   -2.5830 O      1111 WAT       0.1730
   1112 WAT       -32.6820  -73.4160   -2.3330 O      1112 WAT       0.0666
   1113 WAT       -32.6820  -73.1660   -3.8330 O      1113 WAT       0.0475
   1114 WAT       -32.6820  -73.1660   -3.5830 O      1114 WAT       0.1261
   1115 WAT       -32.6820  -73.1660   -3.3330 O      1115 WAT       0.2261
   1116 WAT       -32.6820  -73.1660   -3.0830 O      1116 WAT       0.2729
   1117 WAT       -32.6820  -73.1660   -2.8330 O      1117 WAT       0.2200
   1118 WAT       -32.6820  -73.1660   -2.5830 O      1118 WAT       0.1180
   1119 WAT       -32.6820  -72.9160   -3.5830 O      1119 WAT       0.0851
   1120 WAT       -32.6820  -72.9160   -3.3330 O      1120 WAT       0.1495
   1121 WAT       -32.6820  -72.9160   -3.0830 O      1121 WAT       0.1749
   1122 WAT       -32.6820  -72.9160   -2.8330 O      1122 WAT       0.1352
   1123 WAT       -32.6820  -72.9160   -2.5830 O      1123 WAT       0.0683
   1124 WAT       -32.6820  -72.6660   -3.5830 O      1124 WAT       0.0506
   1125 WAT       -32.6820  -72.6660   -3.3330 O      1125 WAT       0.0880
   1126 WAT       -32.6820  -72.6660   -3.0830 O      1126 WAT       0.1008
   1127 WAT       -32.6820  -72.6660   -2.8330 O      1127 WAT       0.0755
   1128 WAT       -32.6820  -72.4160   -3.0830 O      1128 WAT       0.0497
   1129 WAT       -32.6820  -71.4160   -6.5830 O      1129 WAT       0.0489
   1130 WAT       -32.6820  -71.4160   -6.3330 O      1130 WAT       0.0850
   1131 WAT       -32.6820  -71.4160   -6.0830 O      1131 WAT       0.0972
   1132 WAT       -32.6820  -71.4160   -5.8330 O      1132 WAT       0.0718
   1133 WAT       -32.6820  -71.1660   -6.8330 O      1133 WAT       0.0530
   1134 WAT       -32.6820  -71.1660   -6.5830 O      1134 WAT       0.1214
   1135 WAT       -32.6820  -71.1660   -6.3330 O      1135 WAT       0.1952
   1136 WAT       -32.6820  -71.1660   -6.0830 O      1136 WAT       0.2065
   1137 WAT       -32.6820  -71.1660   -5.8330 O      1137 WAT       0.1404
   1138 WAT       -32.6820  -71.1660   -5.5830 O      1138 WAT       0.0605
   1139 WAT       -32.6820  -70.9160   -6.8330 O      1139 WAT       0.1081
   1140 WAT       -32.6820  -70.9160   -6.5830 O      1140 WAT       0.2318
   1141 WAT       -32.6820  -70.9160   -6.3330 O      1141 WAT       0.3463
   1142 WAT       -32.6820  -70.9160   -6.0830 O      1142 WAT       0.3405
   1143 WAT       -32.6820  -70.9160   -5.8330 O      1143 WAT       0.2154
   1144 WAT       -32.6820  -70.9160   -5.5830 O      1144 WAT       0.0864
   1145 WAT       -32.6820  -70.6660   -7.0830 O      1145 WAT       0.0639
   1146 WAT       -32.6820  -70.6660   -6.8330 O      1146 WAT       0.1687
   1147 WAT       -32.6820  -70.6660   -6.5830 O      1147 WAT       0.3413
   1148 WAT       -32.6820  -70.6660   -6.3330 O      1148 WAT       0.4756
   1149 WAT       -32.6820  -70.6660   -6.0830 O      1149 WAT       0.4356
   1150 WAT       -32.6820  -70.6660   -5.8330 O      1150 WAT       0.2572
   1151 WAT       -32.6820  -70.6660   -5.5830 O      1151 WAT       0.0963
   1152 WAT       -32.6820  -70.4160   -7.0830 O      1152 WAT       0.0771
   1153 WAT       -32.6820  -70.4160   -6.8330 O      1153 WAT       0.2001
   1154 WAT       -32.6820  -70.4160   -6.5830 O      1154 WAT       0.3851
   1155 WAT       -32.6820  -70.4160   -6.3330 O      1155 WAT       0.5046
   1156 WAT       -32.6820  -70.4160   -6.0830 O      1156 WAT       0.4336
   1157 WAT       -32.6820  -70.4160   -5.8330 O      1157 WAT       0.2402
   1158 WAT       -32.6820  -70.4160   -5.5830 O      1158 WAT       0.0844
   1159 WAT       -32.6820  -70.1660   -7.0830 O      1159 WAT       0.0690
   1160 WAT       -32.6820  -70.1660   -6.8330 O      1160 WAT       0.1768
   1161 WAT       -32.6820  -70.1660   -6.5830 O      1161 WAT       0.3271
   1162 WAT       -32.6820  -70.1660   -6.3330 O      1162 WAT       0.4081
   1163 WAT       -32.6820  -70.1660   -6.0830 O      1163 WAT       0.3333
   1164 WAT       -32.6820  -70.1660   -5.8330 O      1164 WAT       0.1753
   1165 WAT       -32.6820  -70.1660   -5.5830 O      1165 WAT       0.0580
   1166 WAT       -32.6820  -69.9160   -6.8330 O      1166 WAT       0.1137
   1167 WAT       -32.6820  -69.9160   -6.5830 O      1167 WAT       0.2048
   1168 WAT       -32.6820  -69.9160   -6.3330 O      1168 WAT       0.2469
   1169 WAT       -32.6820  -69.9160   -6.0830 O      1169 WAT       0.1946
   1170 WAT       -32.6820  -69.9160   -5.8330 O      1170 WAT       0.0985
   1171 WAT       -32.6820  -69.6660   -6.8330 O      1171 WAT       0.0520
   1172 WAT       -32.6820  -69.6660   -6.5830 O      1172 WAT       0.0930
   1173 WAT       -32.6820  -69.6660   -6.3330 O      1173 WAT       0.1100
   1174 WAT       -32.6820  -69.6660   -6.0830 O      1174 WAT       0.0848
   1175 WAT       -32.4320  -74.9160   -5.8330 O      1175 WAT       0.0484
   1176 WAT       -32.4320  -74.9160   -5.5830 O      1176 WAT       0.0659
   1177 WAT       -32.4320  -74.9160   -5.3330 O      1177 WAT       0.0649
   1178 WAT       -32.4320  -74.9160   -5.0830 O      1178 WAT       0.0466
   1179 WAT       -32.4320  -74.6660   -5.8330 O      1179 WAT       0.0729
   1180 WAT       -32.4320  -74.6660   -5.5830 O      1180 WAT       0.0965
   1181 WAT       -32.4320  -74.6660   -5.3330 O      1181 WAT       0.0952
   1182 WAT       -32.4320  -74.6660   -5.0830 O      1182 WAT       0.0700
   1183 WAT       -32.4320  -74.4160   -6.0830 O      1183 WAT       0.0549
   1184 WAT       -32.4320  -74.4160   -5.8330 O      1184 WAT       0.0892
   1185 WAT       -32.4320  -74.4160   -5.5830 O      1185 WAT       0.1121
   1186 WAT       -32.4320  -74.4160   -5.3330 O      1186 WAT       0.1083
   1187 WAT       -32.4320  -74.4160   -5.0830 O      1187 WAT       0.0801
   1188 WAT       -32.4320  -74.4160   -4.8330 O      1188 WAT       0.0455
   1189 WAT       -32.4320  -74.1660   -6.0830 O      1189 WAT       0.0635
   1190 WAT       -32.4320  -74.1660   -5.8330 O      1190 WAT       0.0918
   1191 WAT       -32.4320  -74.1660   -5.5830 O      1191 WAT       0.1067
   1192 WAT       -32.4320  -74.1660   -5.3330 O      1192 WAT       0.0985
   1193 WAT       -32.4320  -74.1660   -5.0830 O      1193 WAT       0.0717
   1194 WAT       -32.4320  -74.1660   -3.3330 O      1194 WAT       0.0542
   1195 WAT       -32.4320  -74.1660   -3.0830 O      1195 WAT       0.0749
   1196 WAT       -32.4320  -74.1660   -2.8330 O      1196 WAT       0.0711
   1197 WAT       -32.4320  -74.1660   -2.5830 O      1197 WAT       0.0462
   1198 WAT       -32.4320  -73.9160   -6.0830 O      1198 WAT       0.0650
   1199 WAT       -32.4320  -73.9160   -5.8330 O      1199 WAT       0.0815
   1200 WAT       -32.4320  -73.9160   -5.5830 O      1200 WAT       0.0854
   1201 WAT       -32.4320  -73.9160   -5.3330 O      1201 WAT       0.0736
   1202 WAT       -32.4320  -73.9160   -5.0830 O      1202 WAT       0.0515
   1203 WAT       -32.4320  -73.9160   -3.5830 O      1203 WAT       0.0617
   1204 WAT       -32.4320  -73.9160   -3.3330 O      1204 WAT       0.1191
   1205 WAT       -32.4320  -73.9160   -3.0830 O      1205 WAT       0.1575
   1206 WAT       -32.4320  -73.9160   -2.8330 O      1206 WAT       0.1419
   1207 WAT       -32.4320  -73.9160   -2.5830 O      1207 WAT       0.0868
   1208 WAT       -32.4320  -73.6660   -6.3330 O      1208 WAT       0.0462
   1209 WAT       -32.4320  -73.6660   -6.0830 O      1209 WAT       0.0584
   1210 WAT       -32.4320  -73.6660   -5.8330 O      1210 WAT       0.0632
   1211 WAT       -32.4320  -73.6660   -5.5830 O      1211 WAT       0.0589
   1212 WAT       -32.4320  -73.6660   -5.3330 O      1212 WAT       0.0464
   1213 WAT       -32.4320  -73.6660   -3.5830 O      1213 WAT       0.0970
   1214 WAT       -32.4320  -73.6660   -3.3330 O      1214 WAT       0.1817
   1215 WAT       -32.4320  -73.6660   -3.0830 O      1215 WAT       0.2309
   1216 WAT       -32.4320  -73.6660   -2.8330 O      1216 WAT       0.1979
   1217 WAT       -32.4320  -73.6660   -2.5830 O      1217 WAT       0.1141
   1218 WAT       -32.4320  -73.4160   -6.0830 O      1218 WAT       0.0451
   1219 WAT       -32.4320  -73.4160   -3.5830 O      1219 WAT       0.1088
   1220 WAT       -32.4320  -73.4160   -3.3330 O      1220 WAT       0.1975
   1221 WAT       -32.4320  -73.4160   -3.0830 O      1221 WAT       0.2413
   1222 WAT       -32.4320  -73.4160   -2.8330 O      1222 WAT       0.1972
   1223 WAT       -32.4320  -73.4160   -2.5830 O      1223 WAT       0.1074
   1224 WAT       -32.4320  -73.1660   -3.5830 O      1224 WAT       0.0917
   1225 WAT       -32.4320  -73.1660   -3.3330 O      1225 WAT       0.1610
   1226 WAT       -32.4320  -73.1660   -3.0830 O      1226 WAT       0.1891
   1227 WAT       -32.4320  -73.1660   -2.8330 O      1227 WAT       0.1476
   1228 WAT       -32.4320  -73.1660   -2.5830 O      1228 WAT       0.0759
   1229 WAT       -32.4320  -72.9160   -3.5830 O      1229 WAT       0.0635
   1230 WAT       -32.4320  -72.9160   -3.3330 O      1230 WAT       0.1081
   1231 WAT       -32.4320  -72.9160   -3.0830 O      1231 WAT       0.1224
   1232 WAT       -32.4320  -72.9160   -2.8330 O      1232 WAT       0.0911
   1233 WAT       -32.4320  -72.6660   -3.3330 O      1233 WAT       0.0647
   1234 WAT       -32.4320  -72.6660   -3.0830 O      1234 WAT       0.0709
   1235 WAT       -32.4320  -72.6660   -2.8330 O      1235 WAT       0.0507
   1236 WAT       -32.4320  -71.4160   -6.3330 O      1236 WAT       0.0732
   1237 WAT       -32.4320  -71.4160   -6.0830 O      1237 WAT       0.0871
   1238 WAT       -32.4320  -71.4160   -5.8330 O      1238 WAT       0.0662
   1239 WAT       -32.4320  -71.1660   -6.5830 O      1239 WAT       0.0952
   1240 WAT       -32.4320  -71.1660   -6.3330 O      1240 WAT       0.1629
   1241 WAT       -32.4320  -71.1660   -6.0830 O      1241 WAT       0.1804
   1242 WAT       -32.4320  -71.1660   -5.8330 O      1242 WAT       0.1274
   1243 WAT       -32.4320  -71.1660   -5.5830 O      1243 WAT       0.0569
   1244 WAT       -32.4320  -70.9160   -6.8330 O      1244 WAT       0.0728
   1245 WAT       -32.4320  -70.9160   -6.5830 O      1245 WAT       0.1721
   1246 WAT       -32.4320  -70.9160   -6.3330 O      1246 WAT       0.2743
   1247 WAT       -32.4320  -70.9160   -6.0830 O      1247 WAT       0.2837
   1248 WAT       -32.4320  -70.9160   -5.8330 O      1248 WAT       0.1875
   1249 WAT       -32.4320  -70.9160   -5.5830 O      1249 WAT       0.0783
   1250 WAT       -32.4320  -70.6660   -6.8330 O      1250 WAT       0.1076
   1251 WAT       -32.4320  -70.6660   -6.5830 O      1251 WAT       0.2373
   1252 WAT       -32.4320  -70.6660   -6.3330 O      1252 WAT       0.3525
   1253 WAT       -32.4320  -70.6660   -6.0830 O      1253 WAT       0.3406
   1254 WAT       -32.4320  -70.6660   -5.8330 O      1254 WAT       0.2107
   1255 WAT       -32.4320  -70.6660   -5.5830 O      1255 WAT       0.0824
   1256 WAT       -32.4320  -70.4160   -6.8330 O      1256 WAT       0.1210
   1257 WAT       -32.4320  -70.4160   -6.5830 O      1257 WAT       0.2506
   1258 WAT       -32.4320  -70.4160   -6.3330 O      1258 WAT       0.3482
   1259 WAT       -32.4320  -70.4160   -6.0830 O      1259 WAT       0.3150
   1260 WAT       -32.4320  -70.4160   -5.8330 O      1260 WAT       0.1828
   1261 WAT       -32.4320  -70.4160   -5.5830 O      1261 WAT       0.0669
   1262 WAT       -32.4320  -70.1660   -6.8330 O      1262 WAT       0.1022
   1263 WAT       -32.4320  -70.1660   -6.5830 O      1263 WAT       0.2013
   1264 WAT       -32.4320  -70.1660   -6.3330 O      1264 WAT       0.2641
   1265 WAT       -32.4320  -70.1660   -6.0830 O      1265 WAT       0.2257
   1266 WAT       -32.4320  -70.1660   -5.8330 O      1266 WAT       0.1237
   1267 WAT       -32.4320  -69.9160   -6.8330 O      1267 WAT       0.0638
   1268 WAT       -32.4320  -69.9160   -6.5830 O      1268 WAT       0.1214
   1269 WAT       -32.4320  -69.9160   -6.3330 O      1269 WAT       0.1527
   1270 WAT       -32.4320  -69.9160   -6.0830 O      1270 WAT       0.1248
   1271 WAT       -32.4320  -69.9160   -5.8330 O      1271 WAT       0.0651
   1272 WAT       -32.4320  -69.6660   -6.5830 O      1272 WAT       0.0542
   1273 WAT       -32.4320  -69.6660   -6.3330 O      1273 WAT       0.0666
   1274 WAT       -32.4320  -69.6660   -6.0830 O      1274 WAT       0.0528
   1275 WAT       -32.1820  -74.6660   -5.8330 O      1275 WAT       0.0494
   1276 WAT       -32.1820  -74.6660   -5.5830 O      1276 WAT       0.0657
   1277 WAT       -32.1820  -74.6660   -5.3330 O      1277 WAT       0.0647
   1278 WAT       -32.1820  -74.6660   -5.0830 O      1278 WAT       0.0466
   1279 WAT       -32.1820  -74.4160   -5.8330 O      1279 WAT       0.0603
   1280 WAT       -32.1820  -74.4160   -5.5830 O      1280 WAT       0.0767
   1281 WAT       -32.1820  -74.4160   -5.3330 O      1281 WAT       0.0745
   1282 WAT       -32.1820  -74.4160   -5.0830 O      1282 WAT       0.0544
   1283 WAT       -32.1820  -74.1660   -5.8330 O      1283 WAT       0.0625
   1284 WAT       -32.1820  -74.1660   -5.5830 O      1284 WAT       0.0735
   1285 WAT       -32.1820  -74.1660   -5.3330 O      1285 WAT       0.0685
   1286 WAT       -32.1820  -74.1660   -5.0830 O      1286 WAT       0.0497
   1287 WAT       -32.1820  -73.9160   -6.0830 O      1287 WAT       0.0455
   1288 WAT       -32.1820  -73.9160   -5.8330 O      1288 WAT       0.0569
   1289 WAT       -32.1820  -73.9160   -5.5830 O      1289 WAT       0.0597
   1290 WAT       -32.1820  -73.9160   -5.3330 O      1290 WAT       0.0517
   1291 WAT       -32.1820  -73.9160   -3.3330 O      1291 WAT       0.0501
   1292 WAT       -32.1820  -73.9160   -3.0830 O      1292 WAT       0.0643
   1293 WAT       -32.1820  -73.9160   -2.8330 O      1293 WAT       0.0551
   1294 WAT       -32.1820  -73.6660   -5.8330 O      1294 WAT       0.0468
   1295 WAT       -32.1820  -73.6660   -3.3330 O      1295 WAT       0.0813
   1296 WAT       -32.1820  -73.6660   -3.0830 O      1296 WAT       0.1001
   1297 WAT       -32.1820  -73.6660   -2.8330 O      1297 WAT       0.0823
   1298 WAT       -32.1820  -73.4160   -3.5830 O      1298 WAT       0.0521
   1299 WAT       -32.1820  -73.4160   -3.3330 O      1299 WAT       0.0925
   1300 WAT       -32.1820  -73.4160   -3.0830 O      1300 WAT       0.1095
   1301 WAT       -32.1820  -73.4160   -2.8330 O      1301 WAT       0.0862
   1302 WAT       -32.1820  -73.1660   -3.5830 O      1302 WAT       0.0460
   1303 WAT       -32.1820  -73.1660   -3.3330 O      1303 WAT       0.0785
   1304 WAT       -32.1820  -73.1660   -3.0830 O      1304 WAT       0.0891
   1305 WAT       -32.1820  -73.1660   -2.8330 O      1305 WAT       0.0668
   1306 WAT       -32.1820  -72.9160   -3.3330 O      1306 WAT       0.0552
   1307 WAT       -32.1820  -72.9160   -3.0830 O      1307 WAT       0.0598
   1308 WAT       -32.1820  -71.4160   -6.0830 O      1308 WAT       0.0512
   1309 WAT       -32.1820  -71.1660   -6.5830 O      1309 WAT       0.0500
   1310 WAT       -32.1820  -71.1660   -6.3330 O      1310 WAT       0.0906
   1311 WAT       -32.1820  -71.1660   -6.0830 O      1311 WAT       0.1045
   1312 WAT       -32.1820  -71.1660   -5.8330 O      1312 WAT       0.0765
   1313 WAT       -32.1820  -70.9160   -6.5830 O      1313 WAT       0.0865
   1314 WAT       -32.1820  -70.9160   -6.3330 O      1314 WAT       0.1463
   1315 WAT       -32.1820  -70.9160   -6.0830 O      1315 WAT       0.1585
   1316 WAT       -32.1820  -70.9160   -5.8330 O      1316 WAT       0.1091
   1317 WAT       -32.1820  -70.9160   -5.5830 O      1317 WAT       0.0472
   1318 WAT       -32.1820  -70.6660   -6.8330 O      1318 WAT       0.0465
   1319 WAT       -32.1820  -70.6660   -6.5830 O      1319 WAT       0.1125
   1320 WAT       -32.1820  -70.6660   -6.3330 O      1320 WAT       0.1775
   1321 WAT       -32.1820  -70.6660   -6.0830 O      1321 WAT       0.1802
   1322 WAT       -32.1820  -70.6660   -5.8330 O      1322 WAT       0.1165
   1323 WAT       -32.1820  -70.6660   -5.5830 O      1323 WAT       0.0472
   1324 WAT       -32.1820  -70.4160   -6.8330 O      1324 WAT       0.0493
   1325 WAT       -32.1820  -70.4160   -6.5830 O      1325 WAT       0.1110
   1326 WAT       -32.1820  -70.4160   -6.3330 O      1326 WAT       0.1636
   1327 WAT       -32.1820  -70.4160   -6.0830 O      1327 WAT       0.1556
   1328 WAT       -32.1820  -70.4160   -5.8330 O      1328 WAT       0.0943
   1329 WAT       -32.1820  -70.1660   -6.5830 O      1329 WAT       0.0835
   1330 WAT       -32.1820  -70.1660   -6.3330 O      1330 WAT       0.1157
   1331 WAT       -32.1820  -70.1660   -6.0830 O      1331 WAT       0.1034
   1332 WAT       -32.1820  -70.1660   -5.8330 O      1332 WAT       0.0587
   1333 WAT       -32.1820  -69.9160   -6.5830 O      1333 WAT       0.0475
   1334 WAT       -32.1820  -69.9160   -6.3330 O      1334 WAT       0.0628
   1335 WAT       -32.1820  -69.9160   -6.0830 O      1335 WAT       0.0533
   1336 WAT       -31.9320  -70.9160   -6.3330 O      1336 WAT       0.0516
   1337 WAT       -31.9320  -70.9160   -6.0830 O      1337 WAT       0.0587
   1338 WAT       -31.9320  -70.6660   -6.3330 O      1338 WAT       0.0595
   1339 WAT       -31.9320  -70.6660   -6.0830 O      1339 WAT       0.0637
   1340 WAT       -31.9320  -70.4160   -6.3330 O      1340 WAT       0.0512
   1341 WAT       -31.9320  -70.4160   -6.0830 O      1341 WAT       0.0514
   1342 WAT       -31.6820  -72.6660   -5.0830 O      1342 WAT       0.0483
   1343 WAT       -31.6820  -72.6660   -4.8330 O      1343 WAT       0.0562
   1344 WAT       -31.6820  -72.6660   -4.5830 O      1344 WAT       0.0498
   1345 WAT       -31.6820  -72.4160   -5.0830 O      1345 WAT       0.0475
   1346 WAT       -31.6820  -72.4160   -4.8330 O      1346 WAT       0.0564
   1347 WAT       -31.6820  -72.4160   -4.5830 O      1347 WAT       0.0514
   1348 WAT       -31.6820  -72.1660   -4.8330 O      1348 WAT       0.0457
   1349 WAT       -31.4320  -73.1660   -5.0830 O      1349 WAT       0.0591
   1350 WAT       -31.4320  -73.1660   -4.8330 O      1350 WAT       0.0711
   1351 WAT       -31.4320  -73.1660   -4.5830 O      1351 WAT       0.0636
   1352 WAT       -31.4320  -72.9160   -5.3330 O      1352 WAT       0.0645
   1353 WAT       -31.4320  -72.9160   -5.0830 O      1353 WAT       0.1031
   1354 WAT       -31.4320  -72.9160   -4.8330 O      1354 WAT       0.1234
   1355 WAT       -31.4320  -72.9160   -4.5830 O      1355 WAT       0.1099
   1356 WAT       -31.4320  -72.9160   -4.3330 O      1356 WAT       0.0732
   1357 WAT       -31.4320  -72.6660   -5.3330 O      1357 WAT       0.0852
   1358 WAT       -31.4320  -72.6660   -5.0830 O      1358 WAT       0.1364
   1359 WAT       -31.4320  -72.6660   -4.8330 O      1359 WAT       0.1630
   1360 WAT       -31.4320  -72.6660   -4.5830 O      1360 WAT       0.1457
   1361 WAT       -31.4320  -72.6660   -4.3330 O      1361 WAT       0.0986
   1362 WAT       -31.4320  -72.6660   -4.0830 O      1362 WAT       0.0515
   1363 WAT       -31.4320  -72.4160   -5.3330 O      1363 WAT       0.0862
   1364 WAT       -31.4320  -72.4160   -5.0830 O      1364 WAT       0.1387
   1365 WAT       -31.4320  -72.4160   -4.8330 O      1365 WAT       0.1663
   1366 WAT       -31.4320  -72.4160   -4.5830 O      1366 WAT       0.1501
   1367 WAT       -31.4320  -72.4160   -4.3330 O      1367 WAT       0.1038
   1368 WAT       -31.4320  -72.4160   -4.0830 O      1368 WAT       0.0564
   1369 WAT       -31.4320  -72.1660   -5.3330 O      1369 WAT       0.0689
   1370 WAT       -31.4320  -72.1660   -5.0830 O      1370 WAT       0.1116
   1371 WAT       -31.4320  -72.1660   -4.8330 O      1371 WAT       0.1345
   1372 WAT       -31.4320  -72.1660   -4.5830 O      1372 WAT       0.1227
   1373 WAT       -31.4320  -72.1660   -4.3330 O      1373 WAT       0.0867
   1374 WAT       -31.4320  -72.1660   -4.0830 O      1374 WAT       0.0486
   1375 WAT       -31.4320  -71.9160   -5.3330 O      1375 WAT       0.0454
   1376 WAT       -31.4320  -71.9160   -5.0830 O      1376 WAT       0.0739
   1377 WAT       -31.4320  -71.9160   -4.8330 O      1377 WAT       0.0890
   1378 WAT       -31.4320  -71.9160   -4.5830 O      1378 WAT       0.0812
   1379 WAT       -31.4320  -71.9160   -4.3330 O      1379 WAT       0.0577
   1380 WAT       -31.4320  -71.6660   -4.8330 O      1380 WAT       0.0491
   1381 WAT       -31.1820  -73.4160   -4.8330 O      1381 WAT       0.0516
   1382 WAT       -31.1820  -73.4160   -4.5830 O      1382 WAT       0.0494
   1383 WAT       -31.1820  -73.1660   -5.3330 O      1383 WAT       0.0584
   1384 WAT       -31.1820  -73.1660   -5.0830 O      1384 WAT       0.1005
   1385 WAT       -31.1820  -73.1660   -4.8330 O      1385 WAT       0.1280
   1386 WAT       -31.1820  -73.1660   -4.5830 O      1386 WAT       0.1202
   1387 WAT       -31.1820  -73.1660   -4.3330 O      1387 WAT       0.0830
   1388 WAT       -31.1820  -72.9160   -5.5830 O      1388 WAT       0.0490
   1389 WAT       -31.1820  -72.9160   -5.3330 O      1389 WAT       0.1113
   1390 WAT       -31.1820  -72.9160   -5.0830 O      1390 WAT       0.1881
   1391 WAT       -31.1820  -72.9160   -4.8330 O      1391 WAT       0.2350
   1392 WAT       -31.1820  -72.9160   -4.5830 O      1392 WAT       0.2168
   1393 WAT       -31.1820  -72.9160   -4.3330 O      1393 WAT       0.1485
   1394 WAT       -31.1820  -72.9160   -4.0830 O      1394 WAT       0.0759
   1395 WAT       -31.1820  -72.6660   -5.5830 O      1395 WAT       0.0696
   1396 WAT       -31.1820  -72.6660   -5.3330 O      1396 WAT       0.1563
   1397 WAT       -31.1820  -72.6660   -5.0830 O      1397 WAT       0.2609
   1398 WAT       -31.1820  -72.6660   -4.8330 O      1398 WAT       0.3215
   1399 WAT       -31.1820  -72.6660   -4.5830 O      1399 WAT       0.2929
   1400 WAT       -31.1820  -72.6660   -4.3330 O      1400 WAT       0.1993
   1401 WAT       -31.1820  -72.6660   -4.0830 O      1401 WAT       0.1028
   1402 WAT       -31.1820  -72.4160   -7.8330 O      1402 WAT       0.0505
   1403 WAT       -31.1820  -72.4160   -5.5830 O      1403 WAT       0.0739
   1404 WAT       -31.1820  -72.4160   -5.3330 O      1404 WAT       0.1651
   1405 WAT       -31.1820  -72.4160   -5.0830 O      1405 WAT       0.2728
   1406 WAT       -31.1820  -72.4160   -4.8330 O      1406 WAT       0.3329
   1407 WAT       -31.1820  -72.4160   -4.5830 O      1407 WAT       0.3013
   1408 WAT       -31.1820  -72.4160   -4.3330 O      1408 WAT       0.2051
   1409 WAT       -31.1820  -72.4160   -4.0830 O      1409 WAT       0.1073
   1410 WAT       -31.1820  -72.1660   -8.3330 O      1410 WAT       0.0487
   1411 WAT       -31.1820  -72.1660   -8.0830 O      1411 WAT       0.0910
   1412 WAT       -31.1820  -72.1660   -7.8330 O      1412 WAT       0.1085
   1413 WAT       -31.1820  -72.1660   -7.5830 O      1413 WAT       0.0840
   1414 WAT       -31.1820  -72.1660   -5.5830 O      1414 WAT       0.0604
   1415 WAT       -31.1820  -72.1660   -5.3330 O      1415 WAT       0.1351
   1416 WAT       -31.1820  -72.1660   -5.0830 O      1416 WAT       0.2217
   1417 WAT       -31.1820  -72.1660   -4.8330 O      1417 WAT       0.2683
   1418 WAT       -31.1820  -72.1660   -4.5830 O      1418 WAT       0.2419
   1419 WAT       -31.1820  -72.1660   -4.3330 O      1419 WAT       0.1656
   1420 WAT       -31.1820  -72.1660   -4.0830 O      1420 WAT       0.0880
   1421 WAT       -31.1820  -71.9160   -8.3330 O      1421 WAT       0.0819
   1422 WAT       -31.1820  -71.9160   -8.0830 O      1422 WAT       0.1413
   1423 WAT       -31.1820  -71.9160   -7.8330 O      1423 WAT       0.1577
   1424 WAT       -31.1820  -71.9160   -7.5830 O      1424 WAT       0.1150
   1425 WAT       -31.1820  -71.9160   -7.3330 O      1425 WAT       0.0548
   1426 WAT       -31.1820  -71.9160   -5.3330 O      1426 WAT       0.0890
   1427 WAT       -31.1820  -71.9160   -5.0830 O      1427 WAT       0.1454
   1428 WAT       -31.1820  -71.9160   -4.8330 O      1428 WAT       0.1742
   1429 WAT       -31.1820  -71.9160   -4.5830 O      1429 WAT       0.1559
   1430 WAT       -31.1820  -71.9160   -4.3330 O      1430 WAT       0.1066
   1431 WAT       -31.1820  -71.9160   -4.0830 O      1431 WAT       0.0569
   1432 WAT       -31.1820  -71.6660   -8.3330 O      1432 WAT       0.0949
   1433 WAT       -31.1820  -71.6660   -8.0830 O      1433 WAT       0.1515
   1434 WAT       -31.1820  -71.6660   -7.8330 O      1434 WAT       0.1578
   1435 WAT       -31.1820  -71.6660   -7.5830 O      1435 WAT       0.1078
   1436 WAT       -31.1820  -71.6660   -7.3330 O      1436 WAT       0.0480
   1437 WAT       -31.1820  -71.6660   -5.3330 O      1437 WAT       0.0491
   1438 WAT       -31.1820  -71.6660   -5.0830 O      1438 WAT       0.0796
   1439 WAT       -31.1820  -71.6660   -4.8330 O      1439 WAT       0.0939
   1440 WAT       -31.1820  -71.6660   -4.5830 O      1440 WAT       0.0824
   1441 WAT       -31.1820  -71.6660   -4.3330 O      1441 WAT       0.0552
   1442 WAT       -31.1820  -71.4160   -8.3330 O      1442 WAT       0.0775
   1443 WAT       -31.1820  -71.4160   -8.0830 O      1443 WAT       0.1144
   1444 WAT       -31.1820  -71.4160   -7.8330 O      1444 WAT       0.1104
   1445 WAT       -31.1820  -71.4160   -7.5830 O      1445 WAT       0.0701
   1446 WAT       -31.1820  -71.1660   -8.3330 O      1446 WAT       0.0453
   1447 WAT       -31.1820  -71.1660   -8.0830 O      1447 WAT       0.0614
   1448 WAT       -31.1820  -71.1660   -7.8330 O      1448 WAT       0.0545
   1449 WAT       -31.1820  -69.4160   -7.5830 O      1449 WAT       0.0461
   1450 WAT       -31.1820  -69.4160   -7.3330 O      1450 WAT       0.0667
   1451 WAT       -31.1820  -69.4160   -7.0830 O      1451 WAT       0.0674
   1452 WAT       -31.1820  -69.4160   -6.8330 O      1452 WAT       0.0478
   1453 WAT       -31.1820  -69.1660   -7.5830 O      1453 WAT       0.0694
   1454 WAT       -31.1820  -69.1660   -7.3330 O      1454 WAT       0.1012
   1455 WAT       -31.1820  -69.1660   -7.0830 O      1455 WAT       0.1028
   1456 WAT       -31.1820  -69.1660   -6.8330 O      1456 WAT       0.0730
   1457 WAT       -31.1820  -68.9160   -7.5830 O      1457 WAT       0.0641
   1458 WAT       -31.1820  -68.9160   -7.3330 O      1458 WAT       0.0943
   1459 WAT       -31.1820  -68.9160   -7.0830 O      1459 WAT       0.0962
   1460 WAT       -31.1820  -68.9160   -6.8330 O      1460 WAT       0.0683
   1461 WAT       -30.9320  -73.4160   -4.8330 O      1461 WAT       0.0604
   1462 WAT       -30.9320  -73.4160   -4.5830 O      1462 WAT       0.0620
   1463 WAT       -30.9320  -73.4160   -4.3330 O      1463 WAT       0.0465
   1464 WAT       -30.9320  -73.1660   -5.3330 O      1464 WAT       0.0643
   1465 WAT       -30.9320  -73.1660   -5.0830 O      1465 WAT       0.1179
   1466 WAT       -30.9320  -73.1660   -4.8330 O      1466 WAT       0.1592
   1467 WAT       -30.9320  -73.1660   -4.5830 O      1467 WAT       0.1584
   1468 WAT       -30.9320  -73.1660   -4.3330 O      1468 WAT       0.1163
   1469 WAT       -30.9320  -73.1660   -4.0830 O      1469 WAT       0.0627
   1470 WAT       -30.9320  -72.9160   -5.5830 O      1470 WAT       0.0543
   1471 WAT       -30.9320  -72.9160   -5.3330 O      1471 WAT       0.1309
   1472 WAT       -30.9320  -72.9160   -5.0830 O      1472 WAT       0.2326
   1473 WAT       -30.9320  -72.9160   -4.8330 O      1473 WAT       0.3044
   1474 WAT       -30.9320  -72.9160   -4.5830 O      1474 WAT       0.2939
   1475 WAT       -30.9320  -72.9160   -4.3330 O      1475 WAT       0.2105
   1476 WAT       -30.9320  -72.9160   -4.0830 O      1476 WAT       0.1120
   1477 WAT       -30.9320  -72.6660   -5.5830 O      1477 WAT       0.0823
   1478 WAT       -30.9320  -72.6660   -5.3330 O      1478 WAT       0.1933
   1479 WAT       -30.9320  -72.6660   -5.0830 O      1479 WAT       0.3354
   1480 WAT       -30.9320  -72.6660   -4.8330 O      1480 WAT       0.4278
   1481 WAT       -30.9320  -72.6660   -4.5830 O      1481 WAT       0.4020
   1482 WAT       -30.9320  -72.6660   -4.3330 O      1482 WAT       0.2806
   1483 WAT       -30.9320  -72.6660   -4.0830 O      1483 WAT       0.1471
   1484 WAT       -30.9320  -72.6660   -3.8330 O      1484 WAT       0.0581
   1485 WAT       -30.9320  -72.4160   -8.3330 O      1485 WAT       0.0483
   1486 WAT       -30.9320  -72.4160   -8.0830 O      1486 WAT       0.0929
   1487 WAT       -30.9320  -72.4160   -7.8330 O      1487 WAT       0.1128
   1488 WAT       -30.9320  -72.4160   -7.5830 O      1488 WAT       0.0883
   1489 WAT       -30.9320  -72.4160   -7.3330 O      1489 WAT       0.0452
   1490 WAT       -30.9320  -72.4160   -5.5830 O      1490 WAT       0.0919
   1491 WAT       -30.9320  -72.4160   -5.3330 O      1491 WAT       0.2121
   1492 WAT       -30.9320  -72.4160   -5.0830 O      1492 WAT       0.3602
   1493 WAT       -30.9320  -72.4160   -4.8330 O      1493 WAT       0.4491
   1494 WAT       -30.9320  -72.4160   -4.5830 O      1494 WAT       0.4122
   1495 WAT       -30.9320  -72.4160   -4.3330 O      1495 WAT       0.2819
   1496 WAT       -30.9320  -72.4160   -4.0830 O      1496 WAT       0.1460
   1497 WAT       -30.9320  -72.4160   -3.8330 O      1497 WAT       0.0580
   1498 WAT       -30.9320  -72.1660   -8.3330 O      1498 WAT       0.1211
   1499 WAT       -30.9320  -72.1660   -8.0830 O      1499 WAT       0.2163
   1500 WAT       -30.9320  -72.1660   -7.8330 O      1500 WAT       0.2483
   1501 WAT       -30.9320  -72.1660   -7.5830 O      1501 WAT       0.1851
   1502 WAT       -30.9320  -72.1660   -7.3330 O      1502 WAT       0.0908
   1503 WAT       -30.9320  -72.1660   -5.5830 O      1503 WAT       0.0781
   1504 WAT       -30.9320  -72.1660   -5.3330 O      1504 WAT       0.1776
   1505 WAT       -30.9320  -72.1660   -5.0830 O      1505 WAT       0.2958
   1506 WAT       -30.9320  -72.1660   -4.8330 O      1506 WAT       0.3610
   1507 WAT       -30.9320  -72.1660   -4.5830 O      1507 WAT       0.3248
   1508 WAT       -30.9320  -72.1660   -4.3330 O      1508 WAT       0.2189
   1509 WAT       -30.9320  -72.1660   -4.0830 O      1509 WAT       0.1127
   1510 WAT       -30.9320  -72.1660   -3.8330 O      1510 WAT       0.0451
   1511 WAT       -30.9320  -71.9160   -8.5830 O      1511 WAT       0.0772
   1512 WAT       -30.9320  -71.9160   -8.3330 O      1512 WAT       0.2026
   1513 WAT       -30.9320  -71.9160   -8.0830 O      1513 WAT       0.3398
   1514 WAT       -30.9320  -71.9160   -7.8330 O      1514 WAT       0.3689
   1515 WAT       -30.9320  -71.9160   -7.5830 O      1515 WAT       0.2614
   1516 WAT       -30.9320  -71.9160   -7.3330 O      1516 WAT       0.1224
   1517 WAT       -30.9320  -71.9160   -5.5830 O      1517 WAT       0.0521
   1518 WAT       -30.9320  -71.9160   -5.3330 O      1518 WAT       0.1177
   1519 WAT       -30.9320  -71.9160   -5.0830 O      1519 WAT       0.1926
   1520 WAT       -30.9320  -71.9160   -4.8330 O      1520 WAT       0.2301
   1521 WAT       -30.9320  -71.9160   -4.5830 O      1521 WAT       0.2029
   1522 WAT       -30.9320  -71.9160   -4.3330 O      1522 WAT       0.1346
   1523 WAT       -30.9320  -71.9160   -4.0830 O      1523 WAT       0.0686
   1524 WAT       -30.9320  -71.6660   -8.5830 O      1524 WAT       0.0960
   1525 WAT       -30.9320  -71.6660   -8.3330 O      1525 WAT       0.2337
   1526 WAT       -30.9320  -71.6660   -8.0830 O      1526 WAT       0.3666
   1527 WAT       -30.9320  -71.6660   -7.8330 O      1527 WAT       0.3748
   1528 WAT       -30.9320  -71.6660   -7.5830 O      1528 WAT       0.2516
   1529 WAT       -30.9320  -71.6660   -7.3330 O      1529 WAT       0.1121
   1530 WAT       -30.9320  -71.6660   -5.3330 O      1530 WAT       0.0642
   1531 WAT       -30.9320  -71.6660   -5.0830 O      1531 WAT       0.1034
   1532 WAT       -30.9320  -71.6660   -4.8330 O      1532 WAT       0.1207
   1533 WAT       -30.9320  -71.6660   -4.5830 O      1533 WAT       0.1036
   1534 WAT       -30.9320  -71.6660   -4.3330 O      1534 WAT       0.0669
   1535 WAT       -30.9320  -71.4160   -8.5830 O      1535 WAT       0.0838
   1536 WAT       -30.9320  -71.4160   -8.3330 O      1536 WAT       0.1892
   1537 WAT       -30.9320  -71.4160   -8.0830 O      1537 WAT       0.2761
   1538 WAT       -30.9320  -71.4160   -7.8330 O      1538 WAT       0.2641
   1539 WAT       -30.9320  -71.4160   -7.5830 O      1539 WAT       0.1672
   1540 WAT       -30.9320  -71.4160   -7.3330 O      1540 WAT       0.0702
   1541 WAT       -30.9320  -71.4160   -5.0830 O      1541 WAT       0.0472
   1542 WAT       -30.9320  -71.4160   -4.8330 O      1542 WAT       0.0535
   1543 WAT       -30.9320  -71.1660   -8.5830 O      1543 WAT       0.0520
   1544 WAT       -30.9320  -71.1660   -8.3330 O      1544 WAT       0.1089
   1545 WAT       -30.9320  -71.1660   -8.0830 O      1545 WAT       0.1473
   1546 WAT       -30.9320  -71.1660   -7.8330 O      1546 WAT       0.1311
   1547 WAT       -30.9320  -71.1660   -7.5830 O      1547 WAT       0.0774
   1548 WAT       -30.9320  -70.9160   -8.0830 O      1548 WAT       0.0559
   1549 WAT       -30.9320  -70.9160   -7.8330 O      1549 WAT       0.0457
   1550 WAT       -30.9320  -69.6660   -7.3330 O      1550 WAT       0.0509
   1551 WAT       -30.9320  -69.6660   -7.0830 O      1551 WAT       0.0504
   1552 WAT       -30.9320  -69.4160   -7.5830 O      1552 WAT       0.0837
   1553 WAT       -30.9320  -69.4160   -7.3330 O      1553 WAT       0.1191
   1554 WAT       -30.9320  -69.4160   -7.0830 O      1554 WAT       0.1186
   1555 WAT       -30.9320  -69.4160   -6.8330 O      1555 WAT       0.0830
   1556 WAT       -30.9320  -69.1660   -7.8330 O      1556 WAT       0.0599
   1557 WAT       -30.9320  -69.1660   -7.5830 O      1557 WAT       0.1220
   1558 WAT       -30.9320  -69.1660   -7.3330 O      1558 WAT       0.1751
   1559 WAT       -30.9320  -69.1660   -7.0830 O      1559 WAT       0.1755
   1560 WAT       -30.9320  -69.1660   -6.8330 O      1560 WAT       0.1231
   1561 WAT       -30.9320  -69.1660   -6.5830 O      1561 WAT       0.0609
   1562 WAT       -30.9320  -68.9160   -7.8330 O      1562 WAT       0.0532
   1563 WAT       -30.9320  -68.9160   -7.5830 O      1563 WAT       0.1097
   1564 WAT       -30.9320  -68.9160   -7.3330 O      1564 WAT       0.1589
   1565 WAT       -30.9320  -68.9160   -7.0830 O      1565 WAT       0.1604
   1566 WAT       -30.9320  -68.9160   -6.8330 O      1566 WAT       0.1129
   1567 WAT       -30.9320  -68.9160   -6.5830 O      1567 WAT       0.0558
   1568 WAT       -30.6820  -73.4160   -4.8330 O      1568 WAT       0.0494
   1569 WAT       -30.6820  -73.4160   -4.5830 O      1569 WAT       0.0555
   1570 WAT       -30.6820  -73.4160   -4.3330 O      1570 WAT       0.0457
   1571 WAT       -30.6820  -73.1660   -5.3330 O      1571 WAT       0.0479
   1572 WAT       -30.6820  -73.1660   -5.0830 O      1572 WAT       0.0940
   1573 WAT       -30.6820  -73.1660   -4.8330 O      1573 WAT       0.1357
   1574 WAT       -30.6820  -73.1660   -4.5830 O      1574 WAT       0.1454
   1575 WAT       -30.6820  -73.1660   -4.3330 O      1575 WAT       0.1156
   1576 WAT       -30.6820  -73.1660   -4.0830 O      1576 WAT       0.0673
   1577 WAT       -30.6820  -72.9160   -5.3330 O      1577 WAT       0.1031
   1578 WAT       -30.6820  -72.9160   -5.0830 O      1578 WAT       0.1929
   1579 WAT       -30.6820  -72.9160   -4.8330 O      1579 WAT       0.2662
   1580 WAT       -30.6820  -72.9160   -4.5830 O      1580 WAT       0.2730
   1581 WAT       -30.6820  -72.9160   -4.3330 O      1581 WAT       0.2085
   1582 WAT       -30.6820  -72.9160   -4.0830 O      1582 WAT       0.1180
   1583 WAT       -30.6820  -72.9160   -3.8330 O      1583 WAT       0.0485
   1584 WAT       -30.6820  -72.6660   -7.8330 O      1584 WAT       0.0482
   1585 WAT       -30.6820  -72.6660   -5.5830 O      1585 WAT       0.0648
   1586 WAT       -30.6820  -72.6660   -5.3330 O      1586 WAT       0.1590
   1587 WAT       -30.6820  -72.6660   -5.0830 O      1587 WAT       0.2867
   1588 WAT       -30.6820  -72.6660   -4.8330 O      1588 WAT       0.3805
   1589 WAT       -30.6820  -72.6660   -4.5830 O      1589 WAT       0.3735
   1590 WAT       -30.6820  -72.6660   -4.3330 O      1590 WAT       0.2733
   1591 WAT       -30.6820  -72.6660   -4.0830 O      1591 WAT       0.1494
   1592 WAT       -30.6820  -72.6660   -3.8330 O      1592 WAT       0.0605
   1593 WAT       -30.6820  -72.4160   -8.3330 O      1593 WAT       0.0767
   1594 WAT       -30.6820  -72.4160   -8.0830 O      1594 WAT       0.1419
   1595 WAT       -30.6820  -72.4160   -7.8330 O      1595 WAT       0.1666
   1596 WAT       -30.6820  -72.4160   -7.5830 O      1596 WAT       0.1259
   1597 WAT       -30.6820  -72.4160   -7.3330 O      1597 WAT       0.0620
   1598 WAT       -30.6820  -72.4160   -5.5830 O      1598 WAT       0.0758
   1599 WAT       -30.6820  -72.4160   -5.3330 O      1599 WAT       0.1804
   1600 WAT       -30.6820  -72.4160   -5.0830 O      1600 WAT       0.3147
   1601 WAT       -30.6820  -72.4160   -4.8330 O      1601 WAT       0.4026
   1602 WAT       -30.6820  -72.4160   -4.5830 O      1602 WAT       0.3794
   1603 WAT       -30.6820  -72.4160   -4.3330 O      1603 WAT       0.2662
   1604 WAT       -30.6820  -72.4160   -4.0830 O      1604 WAT       0.1406
   1605 WAT       -30.6820  -72.4160   -3.8330 O      1605 WAT       0.0559
   1606 WAT       -30.6820  -72.1660   -8.5830 O      1606 WAT       0.0695
   1607 WAT       -30.6820  -72.1660   -8.3330 O      1607 WAT       0.1925
   1608 WAT       -30.6820  -72.1660   -8.0830 O      1608 WAT       0.3366
   1609 WAT       -30.6820  -72.1660   -7.8330 O      1609 WAT       0.3771
   1610 WAT       -30.6820  -72.1660   -7.5830 O      1610 WAT       0.2736
   1611 WAT       -30.6820  -72.1660   -7.3330 O      1611 WAT       0.1307
   1612 WAT       -30.6820  -72.1660   -5.5830 O      1612 WAT       0.0667
   1613 WAT       -30.6820  -72.1660   -5.3330 O      1613 WAT       0.1546
   1614 WAT       -30.6820  -72.1660   -5.0830 O      1614 WAT       0.2612
   1615 WAT       -30.6820  -72.1660   -4.8330 O      1615 WAT       0.3227
   1616 WAT       -30.6820  -72.1660   -4.5830 O      1616 WAT       0.2930
   1617 WAT       -30.6820  -72.1660   -4.3330 O      1617 WAT       0.1981
   1618 WAT       -30.6820  -72.1660   -4.0830 O      1618 WAT       0.1014
   1619 WAT       -30.6820  -71.9160   -8.5830 O      1619 WAT       0.1251
   1620 WAT       -30.6820  -71.9160   -8.3330 O      1620 WAT       0.3238
   1621 WAT       -30.6820  -71.9160   -8.0830 O      1621 WAT       0.5363
   1622 WAT       -30.6820  -71.9160   -7.8330 O      1622 WAT       0.5729
   1623 WAT       -30.6820  -71.9160   -7.5830 O      1623 WAT       0.3985
   1624 WAT       -30.6820  -71.9160   -7.3330 O      1624 WAT       0.1835
   1625 WAT       -30.6820  -71.9160   -7.0830 O      1625 WAT       0.0571
   1626 WAT       -30.6820  -71.9160   -5.5830 O      1626 WAT       0.0456
   1627 WAT       -30.6820  -71.9160   -5.3330 O      1627 WAT       0.1035
   1628 WAT       -30.6820  -71.9160   -5.0830 O      1628 WAT       0.1698
   1629 WAT       -30.6820  -71.9160   -4.8330 O      1629 WAT       0.2025
   1630 WAT       -30.6820  -71.9160   -4.5830 O      1630 WAT       0.1773
   1631 WAT       -30.6820  -71.9160   -4.3330 O      1631 WAT       0.1156
   1632 WAT       -30.6820  -71.9160   -4.0830 O      1632 WAT       0.0572
   1633 WAT       -30.6820  -71.6660   -8.5830 O      1633 WAT       0.1535
   1634 WAT       -30.6820  -71.6660   -8.3330 O      1634 WAT       0.3722
   1635 WAT       -30.6820  -71.6660   -8.0830 O      1635 WAT       0.5816
   1636 WAT       -30.6820  -71.6660   -7.8330 O      1636 WAT       0.5903
   1637 WAT       -30.6820  -71.6660   -7.5830 O      1637 WAT       0.3927
   1638 WAT       -30.6820  -71.6660   -7.3330 O      1638 WAT       0.1742
   1639 WAT       -30.6820  -71.6660   -7.0830 O      1639 WAT       0.0521
   1640 WAT       -30.6820  -71.6660   -5.3330 O      1640 WAT       0.0566
   1641 WAT       -30.6820  -71.6660   -5.0830 O      1641 WAT       0.0903
   1642 WAT       -30.6820  -71.6660   -4.8330 O      1642 WAT       0.1037
   1643 WAT       -30.6820  -71.6660   -4.5830 O      1643 WAT       0.0871
   1644 WAT       -30.6820  -71.6660   -4.3330 O      1644 WAT       0.0543
   1645 WAT       -30.6820  -71.4160   -8.5830 O      1645 WAT       0.1314
   1646 WAT       -30.6820  -71.4160   -8.3330 O      1646 WAT       0.2970
   1647 WAT       -30.6820  -71.4160   -8.0830 O      1647 WAT       0.4353
   1648 WAT       -30.6820  -71.4160   -7.8330 O      1648 WAT       0.4175
   1649 WAT       -30.6820  -71.4160   -7.5830 O      1649 WAT       0.2649
   1650 WAT       -30.6820  -71.4160   -7.3330 O      1650 WAT       0.1130
   1651 WAT       -30.6820  -71.4160   -4.8330 O      1651 WAT       0.0453
   1652 WAT       -30.6820  -71.1660   -8.5830 O      1652 WAT       0.0792
   1653 WAT       -30.6820  -71.1660   -8.3330 O      1653 WAT       0.1670
   1654 WAT       -30.6820  -71.1660   -8.0830 O      1654 WAT       0.2285
   1655 WAT       -30.6820  -71.1660   -7.8330 O      1655 WAT       0.2061
   1656 WAT       -30.6820  -71.1660   -7.5830 O      1656 WAT       0.1241
   1657 WAT       -30.6820  -71.1660   -7.3330 O      1657 WAT       0.0498
   1658 WAT       -30.6820  -70.9160   -8.3330 O      1658 WAT       0.0666
   1659 WAT       -30.6820  -70.9160   -8.0830 O      1659 WAT       0.0849
   1660 WAT       -30.6820  -70.9160   -7.8330 O      1660 WAT       0.0715
   1661 WAT       -30.6820  -69.6660   -7.5830 O      1661 WAT       0.0459
   1662 WAT       -30.6820  -69.6660   -7.3330 O      1662 WAT       0.0647
   1663 WAT       -30.6820  -69.6660   -7.0830 O      1663 WAT       0.0640
   1664 WAT       -30.6820  -69.4160   -7.8330 O      1664 WAT       0.0516
   1665 WAT       -30.6820  -69.4160   -7.5830 O      1665 WAT       0.1034
   1666 WAT       -30.6820  -69.4160   -7.3330 O      1666 WAT       0.1466
   1667 WAT       -30.6820  -69.4160   -7.0830 O      1667 WAT       0.1456
   1668 WAT       -30.6820  -69.4160   -6.8330 O      1668 WAT       0.1017
   1669 WAT       -30.6820  -69.4160   -6.5830 O      1669 WAT       0.0502
   1670 WAT       -30.6820  -69.1660   -7.8330 O      1670 WAT       0.0722
   1671 WAT       -30.6820  -69.1660   -7.5830 O      1671 WAT       0.1462
   1672 WAT       -30.6820  -69.1660   -7.3330 O      1672 WAT       0.2090
   1673 WAT       -30.6820  -69.1660   -7.0830 O      1673 WAT       0.2092
   1674 WAT       -30.6820  -69.1660   -6.8330 O      1674 WAT       0.1467
   1675 WAT       -30.6820  -69.1660   -6.5830 O      1675 WAT       0.0725
   1676 WAT       -30.6820  -68.9160   -7.8330 O      1676 WAT       0.0625
   1677 WAT       -30.6820  -68.9160   -7.5830 O      1677 WAT       0.1280
   1678 WAT       -30.6820  -68.9160   -7.3330 O      1678 WAT       0.1847
   1679 WAT       -30.6820  -68.9160   -7.0830 O      1679 WAT       0.1863
   1680 WAT       -30.6820  -68.9160   -6.8330 O      1680 WAT       0.1314
   1681 WAT       -30.6820  -68.9160   -6.5830 O      1681 WAT       0.0650
   1682 WAT       -30.4320  -73.1660   -5.0830 O      1682 WAT       0.0502
   1683 WAT       -30.4320  -73.1660   -4.8330 O      1683 WAT       0.0791
   1684 WAT       -30.4320  -73.1660   -4.5830 O      1684 WAT       0.0932
   1685 WAT       -30.4320  -73.1660   -4.3330 O      1685 WAT       0.0814
   1686 WAT       -30.4320  -73.1660   -4.0830 O      1686 WAT       0.0513
   1687 WAT       -30.4320  -72.9160   -5.3330 O      1687 WAT       0.0535
   1688 WAT       -30.4320  -72.9160   -5.0830 O      1688 WAT       0.1065
   1689 WAT       -30.4320  -72.9160   -4.8330 O      1689 WAT       0.1571
   1690 WAT       -30.4320  -72.9160   -4.5830 O      1690 WAT       0.1741
   1691 WAT       -30.4320  -72.9160   -4.3330 O      1691 WAT       0.1443
   1692 WAT       -30.4320  -72.9160   -4.0830 O      1692 WAT       0.0879
   1693 WAT       -30.4320  -72.6660   -7.8330 O      1693 WAT       0.0458
   1694 WAT       -30.4320  -72.6660   -5.3330 O      1694 WAT       0.0858
   1695 WAT       -30.4320  -72.6660   -5.0830 O      1695 WAT       0.1617
   1696 WAT       -30.4320  -72.6660   -4.8330 O      1696 WAT       0.2253
   1697 WAT       -30.4320  -72.6660   -4.5830 O      1697 WAT       0.2348
   1698 WAT       -30.4320  -72.6660   -4.3330 O      1698 WAT       0.1837
   1699 WAT       -30.4320  -72.6660   -4.0830 O      1699 WAT       0.1069
   1700 WAT       -30.4320  -72.6660   -3.8330 O      1700 WAT       0.0453
   1701 WAT       -30.4320  -72.4160   -8.3330 O      1701 WAT       0.0783
   1702 WAT       -30.4320  -72.4160   -8.0830 O      1702 WAT       0.1425
   1703 WAT       -30.4320  -72.4160   -7.8330 O      1703 WAT       0.1638
   1704 WAT       -30.4320  -72.4160   -7.5830 O      1704 WAT       0.1209
   1705 WAT       -30.4320  -72.4160   -7.3330 O      1705 WAT       0.0578
   1706 WAT       -30.4320  -72.4160   -5.3330 O      1706 WAT       0.1002
   1707 WAT       -30.4320  -72.4160   -5.0830 O      1707 WAT       0.1801
   1708 WAT       -30.4320  -72.4160   -4.8330 O      1708 WAT       0.2381
   1709 WAT       -30.4320  -72.4160   -4.5830 O      1709 WAT       0.2337
   1710 WAT       -30.4320  -72.4160   -4.3330 O      1710 WAT       0.1720
   1711 WAT       -30.4320  -72.4160   -4.0830 O      1711 WAT       0.0951
   1712 WAT       -30.4320  -72.1660   -8.5830 O      1712 WAT       0.0724
   1713 WAT       -30.4320  -72.1660   -8.3330 O      1713 WAT       0.1990
   1714 WAT       -30.4320  -72.1660   -8.0830 O      1714 WAT       0.3440
   1715 WAT       -30.4320  -72.1660   -7.8330 O      1715 WAT       0.3802
   1716 WAT       -30.4320  -72.1660   -7.5830 O      1716 WAT       0.2717
   1717 WAT       -30.4320  -72.1660   -7.3330 O      1717 WAT       0.1276
   1718 WAT       -30.4320  -72.1660   -5.3330 O      1718 WAT       0.0876
   1719 WAT       -30.4320  -72.1660   -5.0830 O      1719 WAT       0.1507
   1720 WAT       -30.4320  -72.1660   -4.8330 O      1720 WAT       0.1896
   1721 WAT       -30.4320  -72.1660   -4.5830 O      1721 WAT       0.1756
   1722 WAT       -30.4320  -72.1660   -4.3330 O      1722 WAT       0.1216
   1723 WAT       -30.4320  -72.1660   -4.0830 O      1723 WAT       0.0636
   1724 WAT       -30.4320  -71.9160   -8.5830 O      1724 WAT       0.1300
   1725 WAT       -30.4320  -71.9160   -8.3330 O      1725 WAT       0.3362
   1726 WAT       -30.4320  -71.9160   -8.0830 O      1726 WAT       0.5545
   1727 WAT       -30.4320  -71.9160   -7.8330 O      1727 WAT       0.5885
   1728 WAT       -30.4320  -71.9160   -7.5830 O      1728 WAT       0.4063
   1729 WAT       -30.4320  -71.9160   -7.3330 O      1729 WAT       0.1860
   1730 WAT       -30.4320  -71.9160   -7.0830 O      1730 WAT       0.0577
   1731 WAT       -30.4320  -71.9160   -5.3330 O      1731 WAT       0.0595
   1732 WAT       -30.4320  -71.9160   -5.0830 O      1732 WAT       0.0980
   1733 WAT       -30.4320  -71.9160   -4.8330 O      1733 WAT       0.1171
   1734 WAT       -30.4320  -71.9160   -4.5830 O      1734 WAT       0.1025
   1735 WAT       -30.4320  -71.9160   -4.3330 O      1735 WAT       0.0666
   1736 WAT       -30.4320  -71.6660   -8.5830 O      1736 WAT       0.1578
   1737 WAT       -30.4320  -71.6660   -8.3330 O      1737 WAT       0.3849
   1738 WAT       -30.4320  -71.6660   -8.0830 O      1738 WAT       0.6034
   1739 WAT       -30.4320  -71.6660   -7.8330 O      1739 WAT       0.6133
   1740 WAT       -30.4320  -71.6660   -7.5830 O      1740 WAT       0.4087
   1741 WAT       -30.4320  -71.6660   -7.3330 O      1741 WAT       0.1823
   1742 WAT       -30.4320  -71.6660   -7.0830 O      1742 WAT       0.0554
   1743 WAT       -30.4320  -71.6660   -5.0830 O      1743 WAT       0.0521
   1744 WAT       -30.4320  -71.6660   -4.8330 O      1744 WAT       0.0588
   1745 WAT       -30.4320  -71.6660   -4.5830 O      1745 WAT       0.0481
   1746 WAT       -30.4320  -71.4160   -8.5830 O      1746 WAT       0.1320
   1747 WAT       -30.4320  -71.4160   -8.3330 O      1747 WAT       0.3027
   1748 WAT       -30.4320  -71.4160   -8.0830 O      1748 WAT       0.4490
   1749 WAT       -30.4320  -71.4160   -7.8330 O      1749 WAT       0.4355
   1750 WAT       -30.4320  -71.4160   -7.5830 O      1750 WAT       0.2798
   1751 WAT       -30.4320  -71.4160   -7.3330 O      1751 WAT       0.1216
   1752 WAT       -30.4320  -71.1660   -8.5830 O      1752 WAT       0.0769
   1753 WAT       -30.4320  -71.1660   -8.3330 O      1753 WAT       0.1659
   1754 WAT       -30.4320  -71.1660   -8.0830 O      1754 WAT       0.2319
   1755 WAT       -30.4320  -71.1660   -7.8330 O      1755 WAT       0.2139
   1756 WAT       -30.4320  -71.1660   -7.5830 O      1756 WAT       0.1323
   1757 WAT       -30.4320  -71.1660   -7.3330 O      1757 WAT       0.0551
   1758 WAT       -30.4320  -70.9160   -8.3330 O      1758 WAT       0.0638
   1759 WAT       -30.4320  -70.9160   -8.0830 O      1759 WAT       0.0841
   1760 WAT       -30.4320  -70.9160   -7.8330 O      1760 WAT       0.0733
   1761 WAT       -30.4320  -69.6660   -7.3330 O      1761 WAT       0.0560
   1762 WAT       -30.4320  -69.6660   -7.0830 O      1762 WAT       0.0558
   1763 WAT       -30.4320  -69.4160   -7.5830 O      1763 WAT       0.0865
   1764 WAT       -30.4320  -69.4160   -7.3330 O      1764 WAT       0.1234
   1765 WAT       -30.4320  -69.4160   -7.0830 O      1765 WAT       0.1236
   1766 WAT       -30.4320  -69.4160   -6.8330 O      1766 WAT       0.0869
   1767 WAT       -30.4320  -69.1660   -7.8330 O      1767 WAT       0.0586
   1768 WAT       -30.4320  -69.1660   -7.5830 O      1768 WAT       0.1191
   1769 WAT       -30.4320  -69.1660   -7.3330 O      1769 WAT       0.1711
   1770 WAT       -30.4320  -69.1660   -7.0830 O      1770 WAT       0.1726
   1771 WAT       -30.4320  -69.1660   -6.8330 O      1771 WAT       0.1222
   1772 WAT       -30.4320  -69.1660   -6.5830 O      1772 WAT       0.0609
   1773 WAT       -30.4320  -68.9160   -7.8330 O      1773 WAT       0.0495
   1774 WAT       -30.4320  -68.9160   -7.5830 O      1774 WAT       0.1017
   1775 WAT       -30.4320  -68.9160   -7.3330 O      1775 WAT       0.1474
   1776 WAT       -30.4320  -68.9160   -7.0830 O      1776 WAT       0.1499
   1777 WAT       -30.4320  -68.9160   -6.8330 O      1777 WAT       0.1069
   1778 WAT       -30.4320  -68.9160   -6.5830 O      1778 WAT       0.0535
   1779 WAT       -30.1820  -72.9160   -4.8330 O      1779 WAT       0.0623
   1780 WAT       -30.1820  -72.9160   -4.5830 O      1780 WAT       0.0761
   1781 WAT       -30.1820  -72.9160   -4.3330 O      1781 WAT       0.0692
   1782 WAT       -30.1820  -72.9160   -4.0830 O      1782 WAT       0.0453
   1783 WAT       -30.1820  -72.6660   -5.0830 O      1783 WAT       0.0593
   1784 WAT       -30.1820  -72.6660   -4.8330 O      1784 WAT       0.0885
   1785 WAT       -30.1820  -72.6660   -4.5830 O      1785 WAT       0.0999
   1786 WAT       -30.1820  -72.6660   -4.3330 O      1786 WAT       0.0848
   1787 WAT       -30.1820  -72.6660   -4.0830 O      1787 WAT       0.0530
   1788 WAT       -30.1820  -72.4160   -8.3330 O      1788 WAT       0.0511
   1789 WAT       -30.1820  -72.4160   -8.0830 O      1789 WAT       0.0931
   1790 WAT       -30.1820  -72.4160   -7.8330 O      1790 WAT       0.1060
   1791 WAT       -30.1820  -72.4160   -7.5830 O      1791 WAT       0.0771
   1792 WAT       -30.1820  -72.4160   -5.0830 O      1792 WAT       0.0665
   1793 WAT       -30.1820  -72.4160   -4.8330 O      1793 WAT       0.0922
   1794 WAT       -30.1820  -72.4160   -4.5830 O      1794 WAT       0.0959
   1795 WAT       -30.1820  -72.4160   -4.3330 O      1795 WAT       0.0754
   1796 WAT       -30.1820  -72.1660   -8.5830 O      1796 WAT       0.0476
   1797 WAT       -30.1820  -72.1660   -8.3330 O      1797 WAT       0.1325
   1798 WAT       -30.1820  -72.1660   -8.0830 O      1798 WAT       0.2288
   1799 WAT       -30.1820  -72.1660   -7.8330 O      1799 WAT       0.2516
   1800 WAT       -30.1820  -72.1660   -7.5830 O      1800 WAT       0.1787
   1801 WAT       -30.1820  -72.1660   -7.3330 O      1801 WAT       0.0831
   1802 WAT       -30.1820  -72.1660   -5.0830 O      1802 WAT       0.0557
   1803 WAT       -30.1820  -72.1660   -4.8330 O      1803 WAT       0.0720
   1804 WAT       -30.1820  -72.1660   -4.5830 O      1804 WAT       0.0691
   1805 WAT       -30.1820  -72.1660   -4.3330 O      1805 WAT       0.0498
   1806 WAT       -30.1820  -71.9160   -8.5830 O      1806 WAT       0.0861
   1807 WAT       -30.1820  -71.9160   -8.3330 O      1807 WAT       0.2250
   1808 WAT       -30.1820  -71.9160   -8.0830 O      1808 WAT       0.3721
   1809 WAT       -30.1820  -71.9160   -7.8330 O      1809 WAT       0.3952
   1810 WAT       -30.1820  -71.9160   -7.5830 O      1810 WAT       0.2732
   1811 WAT       -30.1820  -71.9160   -7.3330 O      1811 WAT       0.1253
   1812 WAT       -30.1820  -71.6660   -8.5830 O      1812 WAT       0.1036
   1813 WAT       -30.1820  -71.6660   -8.3330 O      1813 WAT       0.2564
   1814 WAT       -30.1820  -71.6660   -8.0830 O      1814 WAT       0.4057
   1815 WAT       -30.1820  -71.6660   -7.8330 O      1815 WAT       0.4157
   1816 WAT       -30.1820  -71.6660   -7.5830 O      1816 WAT       0.2797
   1817 WAT       -30.1820  -71.6660   -7.3330 O      1817 WAT       0.1262
   1818 WAT       -30.1820  -71.4160   -8.5830 O      1818 WAT       0.0847
   1819 WAT       -30.1820  -71.4160   -8.3330 O      1819 WAT       0.1988
   1820 WAT       -30.1820  -71.4160   -8.0830 O      1820 WAT       0.3003
   1821 WAT       -30.1820  -71.4160   -7.8330 O      1821 WAT       0.2962
   1822 WAT       -30.1820  -71.4160   -7.5830 O      1822 WAT       0.1940
   1823 WAT       -30.1820  -71.4160   -7.3330 O      1823 WAT       0.0860
   1824 WAT       -30.1820  -71.1660   -8.5830 O      1824 WAT       0.0474
   1825 WAT       -30.1820  -71.1660   -8.3330 O      1825 WAT       0.1061
   1826 WAT       -30.1820  -71.1660   -8.0830 O      1826 WAT       0.1528
   1827 WAT       -30.1820  -71.1660   -7.8330 O      1827 WAT       0.1449
   1828 WAT       -30.1820  -71.1660   -7.5830 O      1828 WAT       0.0922
   1829 WAT       -30.1820  -70.9160   -8.0830 O      1829 WAT       0.0537
   1830 WAT       -30.1820  -70.9160   -7.8330 O      1830 WAT       0.0486
   1831 WAT       -30.1820  -69.4160   -7.5830 O      1831 WAT       0.0485
   1832 WAT       -30.1820  -69.4160   -7.3330 O      1832 WAT       0.0702
   1833 WAT       -30.1820  -69.4160   -7.0830 O      1833 WAT       0.0712
   1834 WAT       -30.1820  -69.4160   -6.8330 O      1834 WAT       0.0507
   1835 WAT       -30.1820  -69.1660   -7.5830 O      1835 WAT       0.0654
   1836 WAT       -30.1820  -69.1660   -7.3330 O      1836 WAT       0.0951
   1837 WAT       -30.1820  -69.1660   -7.0830 O      1837 WAT       0.0971
   1838 WAT       -30.1820  -69.1660   -6.8330 O      1838 WAT       0.0697
   1839 WAT       -30.1820  -68.9160   -7.5830 O      1839 WAT       0.0546
   1840 WAT       -30.1820  -68.9160   -7.3330 O      1840 WAT       0.0801
   1841 WAT       -30.1820  -68.9160   -7.0830 O      1841 WAT       0.0825
   1842 WAT       -30.1820  -68.9160   -6.8330 O      1842 WAT       0.0597
