@<TRIPOS>MOLECULE
****
    8     0     0     0     0
SMALL
USER_CHARGES


@<TRIPOS>ATOM
      1 WAT       -32.6820  -70.4160   -6.3330 O          1 WAT         5.3759  4.16
      2 WAT       -30.6820  -71.6660   -7.8330 O          2 WAT         3.6146  2.74
      3 WAT       -30.9320  -72.4160   -4.8330 O          3 WAT         3.3784  2.12
      4 WAT       -34.9320  -71.9160   -7.3330 O          4 WAT         5.7419  4.15
      5 WAT       -32.9320  -73.6660   -3.0830 O          5 WAT         2.9709  2.90
      6 WAT       -35.9320  -73.6660   -5.5830 O          6 WAT         3.7900  2.18
      7 WAT       -35.4320  -74.1660   -3.8330 O          7 WAT         4.2776  2.72
      8 WAT       -32.6820  -74.1660   -5.5830 O          8 WAT         3.2249  2.18
