@<TRIPOS>MOLECULE
****
 50400     0     0     0     0
SMALL
USER_CHARGES


@<TRIPOS>ATOM
      0 WAT       -38.9320  -77.4160   -9.8330 O         1 <0>         0.0000
      1 WAT       -38.9320  -77.4160   -9.5830 O         1 <0>         0.0000
      2 WAT       -38.9320  -77.4160   -9.3330 O         1 <0>         0.0000
      3 WAT       -38.9320  -77.4160   -9.0830 O         1 <0>         0.0000
      4 WAT       -38.9320  -77.4160   -8.8330 O         1 <0>         0.0000
      5 WAT       -38.9320  -77.4160   -8.5830 O         1 <0>         0.0000
      6 WAT       -38.9320  -77.4160   -8.3330 O         1 <0>         0.0000
      7 WAT       -38.9320  -77.4160   -8.0830 O         1 <0>         0.0000
      8 WAT       -38.9320  -77.4160   -7.8330 O         1 <0>         0.0000
      9 WAT       -38.9320  -77.4160   -7.5830 O         1 <0>         0.0000
     10 WAT       -38.9320  -77.4160   -7.3330 O         1 <0>         0.0000
     11 WAT       -38.9320  -77.4160   -7.0830 O         1 <0>         0.0000
     12 WAT       -38.9320  -77.4160   -6.8330 O         1 <0>         0.0000
     13 WAT       -38.9320  -77.4160   -6.5830 O         1 <0>         0.0000
     14 WAT       -38.9320  -77.4160   -6.3330 O         1 <0>         0.0000
     15 WAT       -38.9320  -77.4160   -6.0830 O         1 <0>         0.0000
     16 WAT       -38.9320  -77.4160   -5.8330 O         1 <0>         0.0000
     17 WAT       -38.9320  -77.4160   -5.5830 O         1 <0>         0.0000
     18 WAT       -38.9320  -77.4160   -5.3330 O         1 <0>         0.0000
     19 WAT       -38.9320  -77.4160   -5.0830 O         1 <0>         0.0000
     20 WAT       -38.9320  -77.4160   -4.8330 O         1 <0>         0.0000
     21 WAT       -38.9320  -77.4160   -4.5830 O         1 <0>         0.0000
     22 WAT       -38.9320  -77.4160   -4.3330 O         1 <0>         0.0000
     23 WAT       -38.9320  -77.4160   -4.0830 O         1 <0>         0.0000
     24 WAT       -38.9320  -77.4160   -3.8330 O         1 <0>         0.0000
     25 WAT       -38.9320  -77.4160   -3.5830 O         1 <0>         0.0000
     26 WAT       -38.9320  -77.4160   -3.3330 O         1 <0>         0.0000
     27 WAT       -38.9320  -77.4160   -3.0830 O         1 <0>         0.0000
     28 WAT       -38.9320  -77.4160   -2.8330 O         1 <0>         0.0000
     29 WAT       -38.9320  -77.4160   -2.5830 O         1 <0>         0.0000
     30 WAT       -38.9320  -77.4160   -2.3330 O         1 <0>         0.0000
     31 WAT       -38.9320  -77.4160   -2.0830 O         1 <0>         0.0000
     32 WAT       -38.9320  -77.4160   -1.8330 O         1 <0>         0.0000
     33 WAT       -38.9320  -77.4160   -1.5830 O         1 <0>         0.0000
     34 WAT       -38.9320  -77.4160   -1.3330 O         1 <0>         0.0000
     35 WAT       -38.9320  -77.4160   -1.0830 O         1 <0>         0.0000
     36 WAT       -38.9320  -77.4160   -0.8330 O         1 <0>         0.0000
     37 WAT       -38.9320  -77.4160   -0.5830 O         1 <0>         0.0000
     38 WAT       -38.9320  -77.4160   -0.3330 O         1 <0>         0.0000
     39 WAT       -38.9320  -77.4160   -0.0830 O         1 <0>         0.0000
     40 WAT       -38.9320  -77.1660   -9.8330 O         1 <0>         0.0000
     41 WAT       -38.9320  -77.1660   -9.5830 O         1 <0>         0.0000
     42 WAT       -38.9320  -77.1660   -9.3330 O         1 <0>         0.0000
     43 WAT       -38.9320  -77.1660   -9.0830 O         1 <0>         0.0000
     44 WAT       -38.9320  -77.1660   -8.8330 O         1 <0>         0.0000
     45 WAT       -38.9320  -77.1660   -8.5830 O         1 <0>         0.0000
     46 WAT       -38.9320  -77.1660   -8.3330 O         1 <0>         0.0000
     47 WAT       -38.9320  -77.1660   -8.0830 O         1 <0>         0.0000
     48 WAT       -38.9320  -77.1660   -7.8330 O         1 <0>         0.0000
     49 WAT       -38.9320  -77.1660   -7.5830 O         1 <0>         0.0000
     50 WAT       -38.9320  -77.1660   -7.3330 O         1 <0>         0.0000
     51 WAT       -38.9320  -77.1660   -7.0830 O         1 <0>         0.0000
     52 WAT       -38.9320  -77.1660   -6.8330 O         1 <0>         0.0000
     53 WAT       -38.9320  -77.1660   -6.5830 O         1 <0>         0.0000
     54 WAT       -38.9320  -77.1660   -6.3330 O         1 <0>         0.0000
     55 WAT       -38.9320  -77.1660   -6.0830 O         1 <0>         0.0000
     56 WAT       -38.9320  -77.1660   -5.8330 O         1 <0>         0.0000
     57 WAT       -38.9320  -77.1660   -5.5830 O         1 <0>         0.0000
     58 WAT       -38.9320  -77.1660   -5.3330 O         1 <0>         0.0000
     59 WAT       -38.9320  -77.1660   -5.0830 O         1 <0>         0.0000
     60 WAT       -38.9320  -77.1660   -4.8330 O         1 <0>         0.0000
     61 WAT       -38.9320  -77.1660   -4.5830 O         1 <0>         0.0000
     62 WAT       -38.9320  -77.1660   -4.3330 O         1 <0>         0.0000
     63 WAT       -38.9320  -77.1660   -4.0830 O         1 <0>         0.0000
     64 WAT       -38.9320  -77.1660   -3.8330 O         1 <0>         0.0000
     65 WAT       -38.9320  -77.1660   -3.5830 O         1 <0>         0.0000
     66 WAT       -38.9320  -77.1660   -3.3330 O         1 <0>         0.0000
     67 WAT       -38.9320  -77.1660   -3.0830 O         1 <0>         0.0000
     68 WAT       -38.9320  -77.1660   -2.8330 O         1 <0>         0.0000
     69 WAT       -38.9320  -77.1660   -2.5830 O         1 <0>         0.0000
     70 WAT       -38.9320  -77.1660   -2.3330 O         1 <0>         0.0000
     71 WAT       -38.9320  -77.1660   -2.0830 O         1 <0>         0.0000
     72 WAT       -38.9320  -77.1660   -1.8330 O         1 <0>         0.0000
     73 WAT       -38.9320  -77.1660   -1.5830 O         1 <0>         0.0000
     74 WAT       -38.9320  -77.1660   -1.3330 O         1 <0>         0.0000
     75 WAT       -38.9320  -77.1660   -1.0830 O         1 <0>         0.0000
     76 WAT       -38.9320  -77.1660   -0.8330 O         1 <0>         0.0000
     77 WAT       -38.9320  -77.1660   -0.5830 O         1 <0>         0.0000
     78 WAT       -38.9320  -77.1660   -0.3330 O         1 <0>         0.0000
     79 WAT       -38.9320  -77.1660   -0.0830 O         1 <0>         0.0000
     80 WAT       -38.9320  -76.9160   -9.8330 O         1 <0>         0.0000
     81 WAT       -38.9320  -76.9160   -9.5830 O         1 <0>         0.0000
     82 WAT       -38.9320  -76.9160   -9.3330 O         1 <0>         0.0000
     83 WAT       -38.9320  -76.9160   -9.0830 O         1 <0>         0.0000
     84 WAT       -38.9320  -76.9160   -8.8330 O         1 <0>         0.0000
     85 WAT       -38.9320  -76.9160   -8.5830 O         1 <0>         0.0000
     86 WAT       -38.9320  -76.9160   -8.3330 O         1 <0>         0.0000
     87 WAT       -38.9320  -76.9160   -8.0830 O         1 <0>         0.0000
     88 WAT       -38.9320  -76.9160   -7.8330 O         1 <0>         0.0000
     89 WAT       -38.9320  -76.9160   -7.5830 O         1 <0>         0.0000
     90 WAT       -38.9320  -76.9160   -7.3330 O         1 <0>         0.0000
     91 WAT       -38.9320  -76.9160   -7.0830 O         1 <0>         0.0000
     92 WAT       -38.9320  -76.9160   -6.8330 O         1 <0>         0.0000
     93 WAT       -38.9320  -76.9160   -6.5830 O         1 <0>         0.0000
     94 WAT       -38.9320  -76.9160   -6.3330 O         1 <0>         0.0000
     95 WAT       -38.9320  -76.9160   -6.0830 O         1 <0>         0.0000
     96 WAT       -38.9320  -76.9160   -5.8330 O         1 <0>         0.0000
     97 WAT       -38.9320  -76.9160   -5.5830 O         1 <0>         0.0000
     98 WAT       -38.9320  -76.9160   -5.3330 O         1 <0>         0.0000
     99 WAT       -38.9320  -76.9160   -5.0830 O         1 <0>         0.0000
    100 WAT       -38.9320  -76.9160   -4.8330 O         1 <0>         0.0000
    101 WAT       -38.9320  -76.9160   -4.5830 O         1 <0>         0.0000
    102 WAT       -38.9320  -76.9160   -4.3330 O         1 <0>         0.0000
    103 WAT       -38.9320  -76.9160   -4.0830 O         1 <0>         0.0000
    104 WAT       -38.9320  -76.9160   -3.8330 O         1 <0>         0.0000
    105 WAT       -38.9320  -76.9160   -3.5830 O         1 <0>         0.0000
    106 WAT       -38.9320  -76.9160   -3.3330 O         1 <0>         0.0000
    107 WAT       -38.9320  -76.9160   -3.0830 O         1 <0>         0.0000
    108 WAT       -38.9320  -76.9160   -2.8330 O         1 <0>         0.0000
    109 WAT       -38.9320  -76.9160   -2.5830 O         1 <0>         0.0000
    110 WAT       -38.9320  -76.9160   -2.3330 O         1 <0>         0.0000
    111 WAT       -38.9320  -76.9160   -2.0830 O         1 <0>         0.0000
    112 WAT       -38.9320  -76.9160   -1.8330 O         1 <0>         0.0000
    113 WAT       -38.9320  -76.9160   -1.5830 O         1 <0>         0.0000
    114 WAT       -38.9320  -76.9160   -1.3330 O         1 <0>         0.0000
    115 WAT       -38.9320  -76.9160   -1.0830 O         1 <0>         0.0000
    116 WAT       -38.9320  -76.9160   -0.8330 O         1 <0>         0.0000
    117 WAT       -38.9320  -76.9160   -0.5830 O         1 <0>         0.0000
    118 WAT       -38.9320  -76.9160   -0.3330 O         1 <0>         0.0000
    119 WAT       -38.9320  -76.9160   -0.0830 O         1 <0>         0.0000
    120 WAT       -38.9320  -76.6660   -9.8330 O         1 <0>         0.0000
    121 WAT       -38.9320  -76.6660   -9.5830 O         1 <0>         0.0000
    122 WAT       -38.9320  -76.6660   -9.3330 O         1 <0>         0.0000
    123 WAT       -38.9320  -76.6660   -9.0830 O         1 <0>         0.0000
    124 WAT       -38.9320  -76.6660   -8.8330 O         1 <0>         0.0000
    125 WAT       -38.9320  -76.6660   -8.5830 O         1 <0>         0.0000
    126 WAT       -38.9320  -76.6660   -8.3330 O         1 <0>         0.0000
    127 WAT       -38.9320  -76.6660   -8.0830 O         1 <0>         0.0000
    128 WAT       -38.9320  -76.6660   -7.8330 O         1 <0>         0.0000
    129 WAT       -38.9320  -76.6660   -7.5830 O         1 <0>         0.0000
    130 WAT       -38.9320  -76.6660   -7.3330 O         1 <0>         0.0000
    131 WAT       -38.9320  -76.6660   -7.0830 O         1 <0>         0.0000
    132 WAT       -38.9320  -76.6660   -6.8330 O         1 <0>         0.0000
    133 WAT       -38.9320  -76.6660   -6.5830 O         1 <0>         0.0000
    134 WAT       -38.9320  -76.6660   -6.3330 O         1 <0>         0.0000
    135 WAT       -38.9320  -76.6660   -6.0830 O         1 <0>         0.0000
    136 WAT       -38.9320  -76.6660   -5.8330 O         1 <0>         0.0000
    137 WAT       -38.9320  -76.6660   -5.5830 O         1 <0>         0.0000
    138 WAT       -38.9320  -76.6660   -5.3330 O         1 <0>         0.0000
    139 WAT       -38.9320  -76.6660   -5.0830 O         1 <0>         0.0000
    140 WAT       -38.9320  -76.6660   -4.8330 O         1 <0>         0.0000
    141 WAT       -38.9320  -76.6660   -4.5830 O         1 <0>         0.0000
    142 WAT       -38.9320  -76.6660   -4.3330 O         1 <0>         0.0000
    143 WAT       -38.9320  -76.6660   -4.0830 O         1 <0>         0.0000
    144 WAT       -38.9320  -76.6660   -3.8330 O         1 <0>         0.0000
    145 WAT       -38.9320  -76.6660   -3.5830 O         1 <0>         0.0000
    146 WAT       -38.9320  -76.6660   -3.3330 O         1 <0>         0.0000
    147 WAT       -38.9320  -76.6660   -3.0830 O         1 <0>         0.0000
    148 WAT       -38.9320  -76.6660   -2.8330 O         1 <0>         0.0000
    149 WAT       -38.9320  -76.6660   -2.5830 O         1 <0>         0.0000
    150 WAT       -38.9320  -76.6660   -2.3330 O         1 <0>         0.0000
    151 WAT       -38.9320  -76.6660   -2.0830 O         1 <0>         0.0000
    152 WAT       -38.9320  -76.6660   -1.8330 O         1 <0>         0.0000
    153 WAT       -38.9320  -76.6660   -1.5830 O         1 <0>         0.0000
    154 WAT       -38.9320  -76.6660   -1.3330 O         1 <0>         0.0000
    155 WAT       -38.9320  -76.6660   -1.0830 O         1 <0>         0.0000
    156 WAT       -38.9320  -76.6660   -0.8330 O         1 <0>         0.0000
    157 WAT       -38.9320  -76.6660   -0.5830 O         1 <0>         0.0000
    158 WAT       -38.9320  -76.6660   -0.3330 O         1 <0>         0.0000
    159 WAT       -38.9320  -76.6660   -0.0830 O         1 <0>         0.0000
    160 WAT       -38.9320  -76.4160   -9.8330 O         1 <0>         0.0000
    161 WAT       -38.9320  -76.4160   -9.5830 O         1 <0>         0.0000
    162 WAT       -38.9320  -76.4160   -9.3330 O         1 <0>         0.0000
    163 WAT       -38.9320  -76.4160   -9.0830 O         1 <0>         0.0000
    164 WAT       -38.9320  -76.4160   -8.8330 O         1 <0>         0.0000
    165 WAT       -38.9320  -76.4160   -8.5830 O         1 <0>         0.0000
    166 WAT       -38.9320  -76.4160   -8.3330 O         1 <0>         0.0000
    167 WAT       -38.9320  -76.4160   -8.0830 O         1 <0>         0.0000
    168 WAT       -38.9320  -76.4160   -7.8330 O         1 <0>         0.0000
    169 WAT       -38.9320  -76.4160   -7.5830 O         1 <0>         0.0000
    170 WAT       -38.9320  -76.4160   -7.3330 O         1 <0>         0.0000
    171 WAT       -38.9320  -76.4160   -7.0830 O         1 <0>         0.0000
    172 WAT       -38.9320  -76.4160   -6.8330 O         1 <0>         0.0000
    173 WAT       -38.9320  -76.4160   -6.5830 O         1 <0>         0.0000
    174 WAT       -38.9320  -76.4160   -6.3330 O         1 <0>         0.0000
    175 WAT       -38.9320  -76.4160   -6.0830 O         1 <0>         0.0000
    176 WAT       -38.9320  -76.4160   -5.8330 O         1 <0>         0.0000
    177 WAT       -38.9320  -76.4160   -5.5830 O         1 <0>         0.0000
    178 WAT       -38.9320  -76.4160   -5.3330 O         1 <0>         0.0000
    179 WAT       -38.9320  -76.4160   -5.0830 O         1 <0>         0.0000
    180 WAT       -38.9320  -76.4160   -4.8330 O         1 <0>         0.0000
    181 WAT       -38.9320  -76.4160   -4.5830 O         1 <0>         0.0000
    182 WAT       -38.9320  -76.4160   -4.3330 O         1 <0>         0.0000
    183 WAT       -38.9320  -76.4160   -4.0830 O         1 <0>         0.0000
    184 WAT       -38.9320  -76.4160   -3.8330 O         1 <0>         0.0000
    185 WAT       -38.9320  -76.4160   -3.5830 O         1 <0>         0.0000
    186 WAT       -38.9320  -76.4160   -3.3330 O         1 <0>         0.0000
    187 WAT       -38.9320  -76.4160   -3.0830 O         1 <0>         0.0000
    188 WAT       -38.9320  -76.4160   -2.8330 O         1 <0>         0.0000
    189 WAT       -38.9320  -76.4160   -2.5830 O         1 <0>         0.0000
    190 WAT       -38.9320  -76.4160   -2.3330 O         1 <0>         0.0000
    191 WAT       -38.9320  -76.4160   -2.0830 O         1 <0>         0.0000
    192 WAT       -38.9320  -76.4160   -1.8330 O         1 <0>         0.0000
    193 WAT       -38.9320  -76.4160   -1.5830 O         1 <0>         0.0000
    194 WAT       -38.9320  -76.4160   -1.3330 O         1 <0>         0.0000
    195 WAT       -38.9320  -76.4160   -1.0830 O         1 <0>         0.0000
    196 WAT       -38.9320  -76.4160   -0.8330 O         1 <0>         0.0000
    197 WAT       -38.9320  -76.4160   -0.5830 O         1 <0>         0.0000
    198 WAT       -38.9320  -76.4160   -0.3330 O         1 <0>         0.0000
    199 WAT       -38.9320  -76.4160   -0.0830 O         1 <0>         0.0000
    200 WAT       -38.9320  -76.1660   -9.8330 O         1 <0>         0.0000
    201 WAT       -38.9320  -76.1660   -9.5830 O         1 <0>         0.0000
    202 WAT       -38.9320  -76.1660   -9.3330 O         1 <0>         0.0000
    203 WAT       -38.9320  -76.1660   -9.0830 O         1 <0>         0.0000
    204 WAT       -38.9320  -76.1660   -8.8330 O         1 <0>         0.0000
    205 WAT       -38.9320  -76.1660   -8.5830 O         1 <0>         0.0000
    206 WAT       -38.9320  -76.1660   -8.3330 O         1 <0>         0.0000
    207 WAT       -38.9320  -76.1660   -8.0830 O         1 <0>         0.0000
    208 WAT       -38.9320  -76.1660   -7.8330 O         1 <0>         0.0000
    209 WAT       -38.9320  -76.1660   -7.5830 O         1 <0>         0.0000
    210 WAT       -38.9320  -76.1660   -7.3330 O         1 <0>         0.0000
    211 WAT       -38.9320  -76.1660   -7.0830 O         1 <0>         0.0000
    212 WAT       -38.9320  -76.1660   -6.8330 O         1 <0>         0.0000
    213 WAT       -38.9320  -76.1660   -6.5830 O         1 <0>         0.0000
    214 WAT       -38.9320  -76.1660   -6.3330 O         1 <0>         0.0000
    215 WAT       -38.9320  -76.1660   -6.0830 O         1 <0>         0.0000
    216 WAT       -38.9320  -76.1660   -5.8330 O         1 <0>         0.0000
    217 WAT       -38.9320  -76.1660   -5.5830 O         1 <0>         0.0000
    218 WAT       -38.9320  -76.1660   -5.3330 O         1 <0>         0.0000
    219 WAT       -38.9320  -76.1660   -5.0830 O         1 <0>         0.0000
    220 WAT       -38.9320  -76.1660   -4.8330 O         1 <0>         0.0000
    221 WAT       -38.9320  -76.1660   -4.5830 O         1 <0>         0.0000
    222 WAT       -38.9320  -76.1660   -4.3330 O         1 <0>         0.0000
    223 WAT       -38.9320  -76.1660   -4.0830 O         1 <0>         0.0000
    224 WAT       -38.9320  -76.1660   -3.8330 O         1 <0>         0.0000
    225 WAT       -38.9320  -76.1660   -3.5830 O         1 <0>         0.0000
    226 WAT       -38.9320  -76.1660   -3.3330 O         1 <0>         0.0000
    227 WAT       -38.9320  -76.1660   -3.0830 O         1 <0>         0.0000
    228 WAT       -38.9320  -76.1660   -2.8330 O         1 <0>         0.0000
    229 WAT       -38.9320  -76.1660   -2.5830 O         1 <0>         0.0000
    230 WAT       -38.9320  -76.1660   -2.3330 O         1 <0>         0.0000
    231 WAT       -38.9320  -76.1660   -2.0830 O         1 <0>         0.0000
    232 WAT       -38.9320  -76.1660   -1.8330 O         1 <0>         0.0000
    233 WAT       -38.9320  -76.1660   -1.5830 O         1 <0>         0.0000
    234 WAT       -38.9320  -76.1660   -1.3330 O         1 <0>         0.0000
    235 WAT       -38.9320  -76.1660   -1.0830 O         1 <0>         0.0000
    236 WAT       -38.9320  -76.1660   -0.8330 O         1 <0>         0.0000
    237 WAT       -38.9320  -76.1660   -0.5830 O         1 <0>         0.0000
    238 WAT       -38.9320  -76.1660   -0.3330 O         1 <0>         0.0000
    239 WAT       -38.9320  -76.1660   -0.0830 O         1 <0>         0.0000
    240 WAT       -38.9320  -75.9160   -9.8330 O         1 <0>         0.0000
    241 WAT       -38.9320  -75.9160   -9.5830 O         1 <0>         0.0000
    242 WAT       -38.9320  -75.9160   -9.3330 O         1 <0>         0.0000
    243 WAT       -38.9320  -75.9160   -9.0830 O         1 <0>         0.0000
    244 WAT       -38.9320  -75.9160   -8.8330 O         1 <0>         0.0000
    245 WAT       -38.9320  -75.9160   -8.5830 O         1 <0>         0.0000
    246 WAT       -38.9320  -75.9160   -8.3330 O         1 <0>         0.0000
    247 WAT       -38.9320  -75.9160   -8.0830 O         1 <0>         0.0000
    248 WAT       -38.9320  -75.9160   -7.8330 O         1 <0>         0.0000
    249 WAT       -38.9320  -75.9160   -7.5830 O         1 <0>         0.0000
    250 WAT       -38.9320  -75.9160   -7.3330 O         1 <0>         0.0000
    251 WAT       -38.9320  -75.9160   -7.0830 O         1 <0>         0.0000
    252 WAT       -38.9320  -75.9160   -6.8330 O         1 <0>         0.0000
    253 WAT       -38.9320  -75.9160   -6.5830 O         1 <0>         0.0000
    254 WAT       -38.9320  -75.9160   -6.3330 O         1 <0>         0.0000
    255 WAT       -38.9320  -75.9160   -6.0830 O         1 <0>         0.0000
    256 WAT       -38.9320  -75.9160   -5.8330 O         1 <0>         0.0000
    257 WAT       -38.9320  -75.9160   -5.5830 O         1 <0>         0.0000
    258 WAT       -38.9320  -75.9160   -5.3330 O         1 <0>         0.0000
    259 WAT       -38.9320  -75.9160   -5.0830 O         1 <0>         0.0000
    260 WAT       -38.9320  -75.9160   -4.8330 O         1 <0>         0.0000
    261 WAT       -38.9320  -75.9160   -4.5830 O         1 <0>         0.0000
    262 WAT       -38.9320  -75.9160   -4.3330 O         1 <0>         0.0000
    263 WAT       -38.9320  -75.9160   -4.0830 O         1 <0>         0.0000
    264 WAT       -38.9320  -75.9160   -3.8330 O         1 <0>         0.0000
    265 WAT       -38.9320  -75.9160   -3.5830 O         1 <0>         0.0000
    266 WAT       -38.9320  -75.9160   -3.3330 O         1 <0>         0.0000
    267 WAT       -38.9320  -75.9160   -3.0830 O         1 <0>         0.0000
    268 WAT       -38.9320  -75.9160   -2.8330 O         1 <0>         0.0000
    269 WAT       -38.9320  -75.9160   -2.5830 O         1 <0>         0.0000
    270 WAT       -38.9320  -75.9160   -2.3330 O         1 <0>         0.0000
    271 WAT       -38.9320  -75.9160   -2.0830 O         1 <0>         0.0000
    272 WAT       -38.9320  -75.9160   -1.8330 O         1 <0>         0.0000
    273 WAT       -38.9320  -75.9160   -1.5830 O         1 <0>         0.0000
    274 WAT       -38.9320  -75.9160   -1.3330 O         1 <0>         0.0000
    275 WAT       -38.9320  -75.9160   -1.0830 O         1 <0>         0.0000
    276 WAT       -38.9320  -75.9160   -0.8330 O         1 <0>         0.0000
    277 WAT       -38.9320  -75.9160   -0.5830 O         1 <0>         0.0000
    278 WAT       -38.9320  -75.9160   -0.3330 O         1 <0>         0.0000
    279 WAT       -38.9320  -75.9160   -0.0830 O         1 <0>         0.0000
    280 WAT       -38.9320  -75.6660   -9.8330 O         1 <0>         0.0000
    281 WAT       -38.9320  -75.6660   -9.5830 O         1 <0>         0.0000
    282 WAT       -38.9320  -75.6660   -9.3330 O         1 <0>         0.0000
    283 WAT       -38.9320  -75.6660   -9.0830 O         1 <0>         0.0000
    284 WAT       -38.9320  -75.6660   -8.8330 O         1 <0>         0.0000
    285 WAT       -38.9320  -75.6660   -8.5830 O         1 <0>         0.0000
    286 WAT       -38.9320  -75.6660   -8.3330 O         1 <0>         0.0000
    287 WAT       -38.9320  -75.6660   -8.0830 O         1 <0>         0.0000
    288 WAT       -38.9320  -75.6660   -7.8330 O         1 <0>         0.0000
    289 WAT       -38.9320  -75.6660   -7.5830 O         1 <0>         0.0000
    290 WAT       -38.9320  -75.6660   -7.3330 O         1 <0>         0.0000
    291 WAT       -38.9320  -75.6660   -7.0830 O         1 <0>         0.0000
    292 WAT       -38.9320  -75.6660   -6.8330 O         1 <0>         0.0000
    293 WAT       -38.9320  -75.6660   -6.5830 O         1 <0>         0.0000
    294 WAT       -38.9320  -75.6660   -6.3330 O         1 <0>         0.0000
    295 WAT       -38.9320  -75.6660   -6.0830 O         1 <0>         0.0000
    296 WAT       -38.9320  -75.6660   -5.8330 O         1 <0>         0.0000
    297 WAT       -38.9320  -75.6660   -5.5830 O         1 <0>         0.0000
    298 WAT       -38.9320  -75.6660   -5.3330 O         1 <0>         0.0000
    299 WAT       -38.9320  -75.6660   -5.0830 O         1 <0>         0.0000
    300 WAT       -38.9320  -75.6660   -4.8330 O         1 <0>         0.0000
    301 WAT       -38.9320  -75.6660   -4.5830 O         1 <0>         0.0000
    302 WAT       -38.9320  -75.6660   -4.3330 O         1 <0>         0.0000
    303 WAT       -38.9320  -75.6660   -4.0830 O         1 <0>         0.0000
    304 WAT       -38.9320  -75.6660   -3.8330 O         1 <0>         0.0000
    305 WAT       -38.9320  -75.6660   -3.5830 O         1 <0>         0.0000
    306 WAT       -38.9320  -75.6660   -3.3330 O         1 <0>         0.0000
    307 WAT       -38.9320  -75.6660   -3.0830 O         1 <0>         0.0000
    308 WAT       -38.9320  -75.6660   -2.8330 O         1 <0>         0.0000
    309 WAT       -38.9320  -75.6660   -2.5830 O         1 <0>         0.0000
    310 WAT       -38.9320  -75.6660   -2.3330 O         1 <0>         0.0000
    311 WAT       -38.9320  -75.6660   -2.0830 O         1 <0>         0.0000
    312 WAT       -38.9320  -75.6660   -1.8330 O         1 <0>         0.0000
    313 WAT       -38.9320  -75.6660   -1.5830 O         1 <0>         0.0000
    314 WAT       -38.9320  -75.6660   -1.3330 O         1 <0>         0.0000
    315 WAT       -38.9320  -75.6660   -1.0830 O         1 <0>         0.0000
    316 WAT       -38.9320  -75.6660   -0.8330 O         1 <0>         0.0000
    317 WAT       -38.9320  -75.6660   -0.5830 O         1 <0>         0.0000
    318 WAT       -38.9320  -75.6660   -0.3330 O         1 <0>         0.0000
    319 WAT       -38.9320  -75.6660   -0.0830 O         1 <0>         0.0000
    320 WAT       -38.9320  -75.4160   -9.8330 O         1 <0>         0.0000
    321 WAT       -38.9320  -75.4160   -9.5830 O         1 <0>         0.0000
    322 WAT       -38.9320  -75.4160   -9.3330 O         1 <0>         0.0000
    323 WAT       -38.9320  -75.4160   -9.0830 O         1 <0>         0.0000
    324 WAT       -38.9320  -75.4160   -8.8330 O         1 <0>         0.0000
    325 WAT       -38.9320  -75.4160   -8.5830 O         1 <0>         0.0000
    326 WAT       -38.9320  -75.4160   -8.3330 O         1 <0>         0.0000
    327 WAT       -38.9320  -75.4160   -8.0830 O         1 <0>         0.0000
    328 WAT       -38.9320  -75.4160   -7.8330 O         1 <0>         0.0000
    329 WAT       -38.9320  -75.4160   -7.5830 O         1 <0>         0.0000
    330 WAT       -38.9320  -75.4160   -7.3330 O         1 <0>         0.0000
    331 WAT       -38.9320  -75.4160   -7.0830 O         1 <0>         0.0000
    332 WAT       -38.9320  -75.4160   -6.8330 O         1 <0>         0.0000
    333 WAT       -38.9320  -75.4160   -6.5830 O         1 <0>         0.0000
    334 WAT       -38.9320  -75.4160   -6.3330 O         1 <0>         0.0000
    335 WAT       -38.9320  -75.4160   -6.0830 O         1 <0>         0.0000
    336 WAT       -38.9320  -75.4160   -5.8330 O         1 <0>         0.0000
    337 WAT       -38.9320  -75.4160   -5.5830 O         1 <0>         0.0000
    338 WAT       -38.9320  -75.4160   -5.3330 O         1 <0>         0.0000
    339 WAT       -38.9320  -75.4160   -5.0830 O         1 <0>         0.0000
    340 WAT       -38.9320  -75.4160   -4.8330 O         1 <0>         0.0000
    341 WAT       -38.9320  -75.4160   -4.5830 O         1 <0>         0.0000
    342 WAT       -38.9320  -75.4160   -4.3330 O         1 <0>         0.0000
    343 WAT       -38.9320  -75.4160   -4.0830 O         1 <0>         0.0000
    344 WAT       -38.9320  -75.4160   -3.8330 O         1 <0>         0.0000
    345 WAT       -38.9320  -75.4160   -3.5830 O         1 <0>         0.0000
    346 WAT       -38.9320  -75.4160   -3.3330 O         1 <0>         0.0000
    347 WAT       -38.9320  -75.4160   -3.0830 O         1 <0>         0.0000
    348 WAT       -38.9320  -75.4160   -2.8330 O         1 <0>         0.0000
    349 WAT       -38.9320  -75.4160   -2.5830 O         1 <0>         0.0000
    350 WAT       -38.9320  -75.4160   -2.3330 O         1 <0>         0.0000
    351 WAT       -38.9320  -75.4160   -2.0830 O         1 <0>         0.0000
    352 WAT       -38.9320  -75.4160   -1.8330 O         1 <0>         0.0000
    353 WAT       -38.9320  -75.4160   -1.5830 O         1 <0>         0.0000
    354 WAT       -38.9320  -75.4160   -1.3330 O         1 <0>         0.0000
    355 WAT       -38.9320  -75.4160   -1.0830 O         1 <0>         0.0000
    356 WAT       -38.9320  -75.4160   -0.8330 O         1 <0>         0.0000
    357 WAT       -38.9320  -75.4160   -0.5830 O         1 <0>         0.0000
    358 WAT       -38.9320  -75.4160   -0.3330 O         1 <0>         0.0000
    359 WAT       -38.9320  -75.4160   -0.0830 O         1 <0>         0.0000
    360 WAT       -38.9320  -75.1660   -9.8330 O         1 <0>         0.0000
    361 WAT       -38.9320  -75.1660   -9.5830 O         1 <0>         0.0000
    362 WAT       -38.9320  -75.1660   -9.3330 O         1 <0>         0.0000
    363 WAT       -38.9320  -75.1660   -9.0830 O         1 <0>         0.0000
    364 WAT       -38.9320  -75.1660   -8.8330 O         1 <0>         0.0000
    365 WAT       -38.9320  -75.1660   -8.5830 O         1 <0>         0.0000
    366 WAT       -38.9320  -75.1660   -8.3330 O         1 <0>         0.0000
    367 WAT       -38.9320  -75.1660   -8.0830 O         1 <0>         0.0000
    368 WAT       -38.9320  -75.1660   -7.8330 O         1 <0>         0.0000
    369 WAT       -38.9320  -75.1660   -7.5830 O         1 <0>         0.0000
    370 WAT       -38.9320  -75.1660   -7.3330 O         1 <0>         0.0000
    371 WAT       -38.9320  -75.1660   -7.0830 O         1 <0>         0.0000
    372 WAT       -38.9320  -75.1660   -6.8330 O         1 <0>         0.0000
    373 WAT       -38.9320  -75.1660   -6.5830 O         1 <0>         0.0000
    374 WAT       -38.9320  -75.1660   -6.3330 O         1 <0>         0.0000
    375 WAT       -38.9320  -75.1660   -6.0830 O         1 <0>         0.0000
    376 WAT       -38.9320  -75.1660   -5.8330 O         1 <0>         0.0000
    377 WAT       -38.9320  -75.1660   -5.5830 O         1 <0>         0.0000
    378 WAT       -38.9320  -75.1660   -5.3330 O         1 <0>         0.0000
    379 WAT       -38.9320  -75.1660   -5.0830 O         1 <0>         0.0000
    380 WAT       -38.9320  -75.1660   -4.8330 O         1 <0>         0.0000
    381 WAT       -38.9320  -75.1660   -4.5830 O         1 <0>         0.0000
    382 WAT       -38.9320  -75.1660   -4.3330 O         1 <0>         0.0000
    383 WAT       -38.9320  -75.1660   -4.0830 O         1 <0>         0.0000
    384 WAT       -38.9320  -75.1660   -3.8330 O         1 <0>         0.0000
    385 WAT       -38.9320  -75.1660   -3.5830 O         1 <0>         0.0000
    386 WAT       -38.9320  -75.1660   -3.3330 O         1 <0>         0.0000
    387 WAT       -38.9320  -75.1660   -3.0830 O         1 <0>         0.0000
    388 WAT       -38.9320  -75.1660   -2.8330 O         1 <0>         0.0000
    389 WAT       -38.9320  -75.1660   -2.5830 O         1 <0>         0.0000
    390 WAT       -38.9320  -75.1660   -2.3330 O         1 <0>         0.0000
    391 WAT       -38.9320  -75.1660   -2.0830 O         1 <0>         0.0000
    392 WAT       -38.9320  -75.1660   -1.8330 O         1 <0>         0.0000
    393 WAT       -38.9320  -75.1660   -1.5830 O         1 <0>         0.0000
    394 WAT       -38.9320  -75.1660   -1.3330 O         1 <0>         0.0000
    395 WAT       -38.9320  -75.1660   -1.0830 O         1 <0>         0.0000
    396 WAT       -38.9320  -75.1660   -0.8330 O         1 <0>         0.0000
    397 WAT       -38.9320  -75.1660   -0.5830 O         1 <0>         0.0000
    398 WAT       -38.9320  -75.1660   -0.3330 O         1 <0>         0.0000
    399 WAT       -38.9320  -75.1660   -0.0830 O         1 <0>         0.0000
    400 WAT       -38.9320  -74.9160   -9.8330 O         1 <0>         0.0000
    401 WAT       -38.9320  -74.9160   -9.5830 O         1 <0>         0.0000
    402 WAT       -38.9320  -74.9160   -9.3330 O         1 <0>         0.0000
    403 WAT       -38.9320  -74.9160   -9.0830 O         1 <0>         0.0000
    404 WAT       -38.9320  -74.9160   -8.8330 O         1 <0>         0.0000
    405 WAT       -38.9320  -74.9160   -8.5830 O         1 <0>         0.0000
    406 WAT       -38.9320  -74.9160   -8.3330 O         1 <0>         0.0000
    407 WAT       -38.9320  -74.9160   -8.0830 O         1 <0>         0.0000
    408 WAT       -38.9320  -74.9160   -7.8330 O         1 <0>         0.0000
    409 WAT       -38.9320  -74.9160   -7.5830 O         1 <0>         0.0000
    410 WAT       -38.9320  -74.9160   -7.3330 O         1 <0>         0.0000
    411 WAT       -38.9320  -74.9160   -7.0830 O         1 <0>         0.0000
    412 WAT       -38.9320  -74.9160   -6.8330 O         1 <0>         0.0000
    413 WAT       -38.9320  -74.9160   -6.5830 O         1 <0>         0.0000
    414 WAT       -38.9320  -74.9160   -6.3330 O         1 <0>         0.0000
    415 WAT       -38.9320  -74.9160   -6.0830 O         1 <0>         0.0000
    416 WAT       -38.9320  -74.9160   -5.8330 O         1 <0>         0.0000
    417 WAT       -38.9320  -74.9160   -5.5830 O         1 <0>         0.0000
    418 WAT       -38.9320  -74.9160   -5.3330 O         1 <0>         0.0000
    419 WAT       -38.9320  -74.9160   -5.0830 O         1 <0>         0.0000
    420 WAT       -38.9320  -74.9160   -4.8330 O         1 <0>         0.0000
    421 WAT       -38.9320  -74.9160   -4.5830 O         1 <0>         0.0000
    422 WAT       -38.9320  -74.9160   -4.3330 O         1 <0>         0.0000
    423 WAT       -38.9320  -74.9160   -4.0830 O         1 <0>         0.0000
    424 WAT       -38.9320  -74.9160   -3.8330 O         1 <0>         0.0000
    425 WAT       -38.9320  -74.9160   -3.5830 O         1 <0>         0.0000
    426 WAT       -38.9320  -74.9160   -3.3330 O         1 <0>         0.0000
    427 WAT       -38.9320  -74.9160   -3.0830 O         1 <0>         0.0000
    428 WAT       -38.9320  -74.9160   -2.8330 O         1 <0>         0.0000
    429 WAT       -38.9320  -74.9160   -2.5830 O         1 <0>         0.0000
    430 WAT       -38.9320  -74.9160   -2.3330 O         1 <0>         0.0000
    431 WAT       -38.9320  -74.9160   -2.0830 O         1 <0>         0.0000
    432 WAT       -38.9320  -74.9160   -1.8330 O         1 <0>         0.0000
    433 WAT       -38.9320  -74.9160   -1.5830 O         1 <0>         0.0000
    434 WAT       -38.9320  -74.9160   -1.3330 O         1 <0>         0.0000
    435 WAT       -38.9320  -74.9160   -1.0830 O         1 <0>         0.0000
    436 WAT       -38.9320  -74.9160   -0.8330 O         1 <0>         0.0000
    437 WAT       -38.9320  -74.9160   -0.5830 O         1 <0>         0.0000
    438 WAT       -38.9320  -74.9160   -0.3330 O         1 <0>         0.0000
    439 WAT       -38.9320  -74.9160   -0.0830 O         1 <0>         0.0000
    440 WAT       -38.9320  -74.6660   -9.8330 O         1 <0>         0.0000
    441 WAT       -38.9320  -74.6660   -9.5830 O         1 <0>         0.0000
    442 WAT       -38.9320  -74.6660   -9.3330 O         1 <0>         0.0000
    443 WAT       -38.9320  -74.6660   -9.0830 O         1 <0>         0.0000
    444 WAT       -38.9320  -74.6660   -8.8330 O         1 <0>         0.0000
    445 WAT       -38.9320  -74.6660   -8.5830 O         1 <0>         0.0000
    446 WAT       -38.9320  -74.6660   -8.3330 O         1 <0>         0.0000
    447 WAT       -38.9320  -74.6660   -8.0830 O         1 <0>         0.0000
    448 WAT       -38.9320  -74.6660   -7.8330 O         1 <0>         0.0000
    449 WAT       -38.9320  -74.6660   -7.5830 O         1 <0>         0.0000
    450 WAT       -38.9320  -74.6660   -7.3330 O         1 <0>         0.0000
    451 WAT       -38.9320  -74.6660   -7.0830 O         1 <0>         0.0000
    452 WAT       -38.9320  -74.6660   -6.8330 O         1 <0>         0.0000
    453 WAT       -38.9320  -74.6660   -6.5830 O         1 <0>         0.0000
    454 WAT       -38.9320  -74.6660   -6.3330 O         1 <0>         0.0000
    455 WAT       -38.9320  -74.6660   -6.0830 O         1 <0>         0.0000
    456 WAT       -38.9320  -74.6660   -5.8330 O         1 <0>         0.0000
    457 WAT       -38.9320  -74.6660   -5.5830 O         1 <0>         0.0000
    458 WAT       -38.9320  -74.6660   -5.3330 O         1 <0>         0.0000
    459 WAT       -38.9320  -74.6660   -5.0830 O         1 <0>         0.0000
    460 WAT       -38.9320  -74.6660   -4.8330 O         1 <0>         0.0000
    461 WAT       -38.9320  -74.6660   -4.5830 O         1 <0>         0.0000
    462 WAT       -38.9320  -74.6660   -4.3330 O         1 <0>         0.0000
    463 WAT       -38.9320  -74.6660   -4.0830 O         1 <0>         0.0000
    464 WAT       -38.9320  -74.6660   -3.8330 O         1 <0>         0.0000
    465 WAT       -38.9320  -74.6660   -3.5830 O         1 <0>         0.0000
    466 WAT       -38.9320  -74.6660   -3.3330 O         1 <0>         0.0000
    467 WAT       -38.9320  -74.6660   -3.0830 O         1 <0>         0.0000
    468 WAT       -38.9320  -74.6660   -2.8330 O         1 <0>         0.0000
    469 WAT       -38.9320  -74.6660   -2.5830 O         1 <0>         0.0000
    470 WAT       -38.9320  -74.6660   -2.3330 O         1 <0>         0.0000
    471 WAT       -38.9320  -74.6660   -2.0830 O         1 <0>         0.0000
    472 WAT       -38.9320  -74.6660   -1.8330 O         1 <0>         0.0000
    473 WAT       -38.9320  -74.6660   -1.5830 O         1 <0>         0.0000
    474 WAT       -38.9320  -74.6660   -1.3330 O         1 <0>         0.0000
    475 WAT       -38.9320  -74.6660   -1.0830 O         1 <0>         0.0000
    476 WAT       -38.9320  -74.6660   -0.8330 O         1 <0>         0.0000
    477 WAT       -38.9320  -74.6660   -0.5830 O         1 <0>         0.0000
    478 WAT       -38.9320  -74.6660   -0.3330 O         1 <0>         0.0000
    479 WAT       -38.9320  -74.6660   -0.0830 O         1 <0>         0.0000
    480 WAT       -38.9320  -74.4160   -9.8330 O         1 <0>         0.0000
    481 WAT       -38.9320  -74.4160   -9.5830 O         1 <0>         0.0000
    482 WAT       -38.9320  -74.4160   -9.3330 O         1 <0>         0.0000
    483 WAT       -38.9320  -74.4160   -9.0830 O         1 <0>         0.0000
    484 WAT       -38.9320  -74.4160   -8.8330 O         1 <0>         0.0000
    485 WAT       -38.9320  -74.4160   -8.5830 O         1 <0>         0.0000
    486 WAT       -38.9320  -74.4160   -8.3330 O         1 <0>         0.0000
    487 WAT       -38.9320  -74.4160   -8.0830 O         1 <0>         0.0000
    488 WAT       -38.9320  -74.4160   -7.8330 O         1 <0>         0.0000
    489 WAT       -38.9320  -74.4160   -7.5830 O         1 <0>         0.0000
    490 WAT       -38.9320  -74.4160   -7.3330 O         1 <0>         0.0000
    491 WAT       -38.9320  -74.4160   -7.0830 O         1 <0>         0.0000
    492 WAT       -38.9320  -74.4160   -6.8330 O         1 <0>         0.0000
    493 WAT       -38.9320  -74.4160   -6.5830 O         1 <0>         0.0000
    494 WAT       -38.9320  -74.4160   -6.3330 O         1 <0>         0.0000
    495 WAT       -38.9320  -74.4160   -6.0830 O         1 <0>         0.0000
    496 WAT       -38.9320  -74.4160   -5.8330 O         1 <0>         0.0000
    497 WAT       -38.9320  -74.4160   -5.5830 O         1 <0>         0.0000
    498 WAT       -38.9320  -74.4160   -5.3330 O         1 <0>         0.0000
    499 WAT       -38.9320  -74.4160   -5.0830 O         1 <0>         0.0000
    500 WAT       -38.9320  -74.4160   -4.8330 O         1 <0>         0.0000
    501 WAT       -38.9320  -74.4160   -4.5830 O         1 <0>         0.0000
    502 WAT       -38.9320  -74.4160   -4.3330 O         1 <0>         0.0000
    503 WAT       -38.9320  -74.4160   -4.0830 O         1 <0>         0.0000
    504 WAT       -38.9320  -74.4160   -3.8330 O         1 <0>         0.0000
    505 WAT       -38.9320  -74.4160   -3.5830 O         1 <0>         0.0000
    506 WAT       -38.9320  -74.4160   -3.3330 O         1 <0>         0.0000
    507 WAT       -38.9320  -74.4160   -3.0830 O         1 <0>         0.0000
    508 WAT       -38.9320  -74.4160   -2.8330 O         1 <0>         0.0000
    509 WAT       -38.9320  -74.4160   -2.5830 O         1 <0>         0.0000
    510 WAT       -38.9320  -74.4160   -2.3330 O         1 <0>         0.0000
    511 WAT       -38.9320  -74.4160   -2.0830 O         1 <0>         0.0000
    512 WAT       -38.9320  -74.4160   -1.8330 O         1 <0>         0.0000
    513 WAT       -38.9320  -74.4160   -1.5830 O         1 <0>         0.0000
    514 WAT       -38.9320  -74.4160   -1.3330 O         1 <0>         0.0000
    515 WAT       -38.9320  -74.4160   -1.0830 O         1 <0>         0.0000
    516 WAT       -38.9320  -74.4160   -0.8330 O         1 <0>         0.0000
    517 WAT       -38.9320  -74.4160   -0.5830 O         1 <0>         0.0000
    518 WAT       -38.9320  -74.4160   -0.3330 O         1 <0>         0.0000
    519 WAT       -38.9320  -74.4160   -0.0830 O         1 <0>         0.0000
    520 WAT       -38.9320  -74.1660   -9.8330 O         1 <0>         0.0000
    521 WAT       -38.9320  -74.1660   -9.5830 O         1 <0>         0.0000
    522 WAT       -38.9320  -74.1660   -9.3330 O         1 <0>         0.0000
    523 WAT       -38.9320  -74.1660   -9.0830 O         1 <0>         0.0000
    524 WAT       -38.9320  -74.1660   -8.8330 O         1 <0>         0.0000
    525 WAT       -38.9320  -74.1660   -8.5830 O         1 <0>         0.0000
    526 WAT       -38.9320  -74.1660   -8.3330 O         1 <0>         0.0000
    527 WAT       -38.9320  -74.1660   -8.0830 O         1 <0>         0.0000
    528 WAT       -38.9320  -74.1660   -7.8330 O         1 <0>         0.0000
    529 WAT       -38.9320  -74.1660   -7.5830 O         1 <0>         0.0000
    530 WAT       -38.9320  -74.1660   -7.3330 O         1 <0>         0.0000
    531 WAT       -38.9320  -74.1660   -7.0830 O         1 <0>         0.0000
    532 WAT       -38.9320  -74.1660   -6.8330 O         1 <0>         0.0000
    533 WAT       -38.9320  -74.1660   -6.5830 O         1 <0>         0.0000
    534 WAT       -38.9320  -74.1660   -6.3330 O         1 <0>         0.0000
    535 WAT       -38.9320  -74.1660   -6.0830 O         1 <0>         0.0000
    536 WAT       -38.9320  -74.1660   -5.8330 O         1 <0>         0.0000
    537 WAT       -38.9320  -74.1660   -5.5830 O         1 <0>         0.0000
    538 WAT       -38.9320  -74.1660   -5.3330 O         1 <0>         0.0000
    539 WAT       -38.9320  -74.1660   -5.0830 O         1 <0>         0.0000
    540 WAT       -38.9320  -74.1660   -4.8330 O         1 <0>         0.0000
    541 WAT       -38.9320  -74.1660   -4.5830 O         1 <0>         0.0000
    542 WAT       -38.9320  -74.1660   -4.3330 O         1 <0>         0.0000
    543 WAT       -38.9320  -74.1660   -4.0830 O         1 <0>         0.0000
    544 WAT       -38.9320  -74.1660   -3.8330 O         1 <0>         0.0000
    545 WAT       -38.9320  -74.1660   -3.5830 O         1 <0>         0.0000
    546 WAT       -38.9320  -74.1660   -3.3330 O         1 <0>         0.0000
    547 WAT       -38.9320  -74.1660   -3.0830 O         1 <0>         0.0000
    548 WAT       -38.9320  -74.1660   -2.8330 O         1 <0>         0.0000
    549 WAT       -38.9320  -74.1660   -2.5830 O         1 <0>         0.0000
    550 WAT       -38.9320  -74.1660   -2.3330 O         1 <0>         0.0000
    551 WAT       -38.9320  -74.1660   -2.0830 O         1 <0>         0.0000
    552 WAT       -38.9320  -74.1660   -1.8330 O         1 <0>         0.0000
    553 WAT       -38.9320  -74.1660   -1.5830 O         1 <0>         0.0000
    554 WAT       -38.9320  -74.1660   -1.3330 O         1 <0>         0.0000
    555 WAT       -38.9320  -74.1660   -1.0830 O         1 <0>         0.0000
    556 WAT       -38.9320  -74.1660   -0.8330 O         1 <0>         0.0000
    557 WAT       -38.9320  -74.1660   -0.5830 O         1 <0>         0.0000
    558 WAT       -38.9320  -74.1660   -0.3330 O         1 <0>         0.0000
    559 WAT       -38.9320  -74.1660   -0.0830 O         1 <0>         0.0000
    560 WAT       -38.9320  -73.9160   -9.8330 O         1 <0>         0.0000
    561 WAT       -38.9320  -73.9160   -9.5830 O         1 <0>         0.0000
    562 WAT       -38.9320  -73.9160   -9.3330 O         1 <0>         0.0000
    563 WAT       -38.9320  -73.9160   -9.0830 O         1 <0>         0.0000
    564 WAT       -38.9320  -73.9160   -8.8330 O         1 <0>         0.0000
    565 WAT       -38.9320  -73.9160   -8.5830 O         1 <0>         0.0000
    566 WAT       -38.9320  -73.9160   -8.3330 O         1 <0>         0.0000
    567 WAT       -38.9320  -73.9160   -8.0830 O         1 <0>         0.0000
    568 WAT       -38.9320  -73.9160   -7.8330 O         1 <0>         0.0000
    569 WAT       -38.9320  -73.9160   -7.5830 O         1 <0>         0.0000
    570 WAT       -38.9320  -73.9160   -7.3330 O         1 <0>         0.0000
    571 WAT       -38.9320  -73.9160   -7.0830 O         1 <0>         0.0000
    572 WAT       -38.9320  -73.9160   -6.8330 O         1 <0>         0.0000
    573 WAT       -38.9320  -73.9160   -6.5830 O         1 <0>         0.0000
    574 WAT       -38.9320  -73.9160   -6.3330 O         1 <0>         0.0000
    575 WAT       -38.9320  -73.9160   -6.0830 O         1 <0>         0.0000
    576 WAT       -38.9320  -73.9160   -5.8330 O         1 <0>         0.0000
    577 WAT       -38.9320  -73.9160   -5.5830 O         1 <0>         0.0000
    578 WAT       -38.9320  -73.9160   -5.3330 O         1 <0>         0.0000
    579 WAT       -38.9320  -73.9160   -5.0830 O         1 <0>         0.0000
    580 WAT       -38.9320  -73.9160   -4.8330 O         1 <0>         0.0000
    581 WAT       -38.9320  -73.9160   -4.5830 O         1 <0>         0.0000
    582 WAT       -38.9320  -73.9160   -4.3330 O         1 <0>         0.0000
    583 WAT       -38.9320  -73.9160   -4.0830 O         1 <0>         0.0000
    584 WAT       -38.9320  -73.9160   -3.8330 O         1 <0>         0.0000
    585 WAT       -38.9320  -73.9160   -3.5830 O         1 <0>         0.0000
    586 WAT       -38.9320  -73.9160   -3.3330 O         1 <0>         0.0000
    587 WAT       -38.9320  -73.9160   -3.0830 O         1 <0>         0.0000
    588 WAT       -38.9320  -73.9160   -2.8330 O         1 <0>         0.0000
    589 WAT       -38.9320  -73.9160   -2.5830 O         1 <0>         0.0000
    590 WAT       -38.9320  -73.9160   -2.3330 O         1 <0>         0.0000
    591 WAT       -38.9320  -73.9160   -2.0830 O         1 <0>         0.0000
    592 WAT       -38.9320  -73.9160   -1.8330 O         1 <0>         0.0000
    593 WAT       -38.9320  -73.9160   -1.5830 O         1 <0>         0.0000
    594 WAT       -38.9320  -73.9160   -1.3330 O         1 <0>         0.0000
    595 WAT       -38.9320  -73.9160   -1.0830 O         1 <0>         0.0000
    596 WAT       -38.9320  -73.9160   -0.8330 O         1 <0>         0.0000
    597 WAT       -38.9320  -73.9160   -0.5830 O         1 <0>         0.0000
    598 WAT       -38.9320  -73.9160   -0.3330 O         1 <0>         0.0000
    599 WAT       -38.9320  -73.9160   -0.0830 O         1 <0>         0.0000
    600 WAT       -38.9320  -73.6660   -9.8330 O         1 <0>         0.0000
    601 WAT       -38.9320  -73.6660   -9.5830 O         1 <0>         0.0000
    602 WAT       -38.9320  -73.6660   -9.3330 O         1 <0>         0.0000
    603 WAT       -38.9320  -73.6660   -9.0830 O         1 <0>         0.0000
    604 WAT       -38.9320  -73.6660   -8.8330 O         1 <0>         0.0000
    605 WAT       -38.9320  -73.6660   -8.5830 O         1 <0>         0.0000
    606 WAT       -38.9320  -73.6660   -8.3330 O         1 <0>         0.0000
    607 WAT       -38.9320  -73.6660   -8.0830 O         1 <0>         0.0000
    608 WAT       -38.9320  -73.6660   -7.8330 O         1 <0>         0.0000
    609 WAT       -38.9320  -73.6660   -7.5830 O         1 <0>         0.0000
    610 WAT       -38.9320  -73.6660   -7.3330 O         1 <0>         0.0000
    611 WAT       -38.9320  -73.6660   -7.0830 O         1 <0>         0.0000
    612 WAT       -38.9320  -73.6660   -6.8330 O         1 <0>         0.0000
    613 WAT       -38.9320  -73.6660   -6.5830 O         1 <0>         0.0000
    614 WAT       -38.9320  -73.6660   -6.3330 O         1 <0>         0.0000
    615 WAT       -38.9320  -73.6660   -6.0830 O         1 <0>         0.0000
    616 WAT       -38.9320  -73.6660   -5.8330 O         1 <0>         0.0000
    617 WAT       -38.9320  -73.6660   -5.5830 O         1 <0>         0.0000
    618 WAT       -38.9320  -73.6660   -5.3330 O         1 <0>         0.0000
    619 WAT       -38.9320  -73.6660   -5.0830 O         1 <0>         0.0000
    620 WAT       -38.9320  -73.6660   -4.8330 O         1 <0>         0.0000
    621 WAT       -38.9320  -73.6660   -4.5830 O         1 <0>         0.0000
    622 WAT       -38.9320  -73.6660   -4.3330 O         1 <0>         0.0000
    623 WAT       -38.9320  -73.6660   -4.0830 O         1 <0>         0.0000
    624 WAT       -38.9320  -73.6660   -3.8330 O         1 <0>         0.0000
    625 WAT       -38.9320  -73.6660   -3.5830 O         1 <0>         0.0000
    626 WAT       -38.9320  -73.6660   -3.3330 O         1 <0>         0.0000
    627 WAT       -38.9320  -73.6660   -3.0830 O         1 <0>         0.0000
    628 WAT       -38.9320  -73.6660   -2.8330 O         1 <0>         0.0000
    629 WAT       -38.9320  -73.6660   -2.5830 O         1 <0>         0.0000
    630 WAT       -38.9320  -73.6660   -2.3330 O         1 <0>         0.0000
    631 WAT       -38.9320  -73.6660   -2.0830 O         1 <0>         0.0000
    632 WAT       -38.9320  -73.6660   -1.8330 O         1 <0>         0.0000
    633 WAT       -38.9320  -73.6660   -1.5830 O         1 <0>         0.0000
    634 WAT       -38.9320  -73.6660   -1.3330 O         1 <0>         0.0000
    635 WAT       -38.9320  -73.6660   -1.0830 O         1 <0>         0.0000
    636 WAT       -38.9320  -73.6660   -0.8330 O         1 <0>         0.0000
    637 WAT       -38.9320  -73.6660   -0.5830 O         1 <0>         0.0000
    638 WAT       -38.9320  -73.6660   -0.3330 O         1 <0>         0.0000
    639 WAT       -38.9320  -73.6660   -0.0830 O         1 <0>         0.0000
    640 WAT       -38.9320  -73.4160   -9.8330 O         1 <0>         0.0000
    641 WAT       -38.9320  -73.4160   -9.5830 O         1 <0>         0.0000
    642 WAT       -38.9320  -73.4160   -9.3330 O         1 <0>         0.0000
    643 WAT       -38.9320  -73.4160   -9.0830 O         1 <0>         0.0000
    644 WAT       -38.9320  -73.4160   -8.8330 O         1 <0>         0.0000
    645 WAT       -38.9320  -73.4160   -8.5830 O         1 <0>         0.0000
    646 WAT       -38.9320  -73.4160   -8.3330 O         1 <0>         0.0000
    647 WAT       -38.9320  -73.4160   -8.0830 O         1 <0>         0.0000
    648 WAT       -38.9320  -73.4160   -7.8330 O         1 <0>         0.0000
    649 WAT       -38.9320  -73.4160   -7.5830 O         1 <0>         0.0000
    650 WAT       -38.9320  -73.4160   -7.3330 O         1 <0>         0.0000
    651 WAT       -38.9320  -73.4160   -7.0830 O         1 <0>         0.0000
    652 WAT       -38.9320  -73.4160   -6.8330 O         1 <0>         0.0000
    653 WAT       -38.9320  -73.4160   -6.5830 O         1 <0>         0.0000
    654 WAT       -38.9320  -73.4160   -6.3330 O         1 <0>         0.0000
    655 WAT       -38.9320  -73.4160   -6.0830 O         1 <0>         0.0000
    656 WAT       -38.9320  -73.4160   -5.8330 O         1 <0>         0.0000
    657 WAT       -38.9320  -73.4160   -5.5830 O         1 <0>         0.0000
    658 WAT       -38.9320  -73.4160   -5.3330 O         1 <0>         0.0000
    659 WAT       -38.9320  -73.4160   -5.0830 O         1 <0>         0.0000
    660 WAT       -38.9320  -73.4160   -4.8330 O         1 <0>         0.0000
    661 WAT       -38.9320  -73.4160   -4.5830 O         1 <0>         0.0000
    662 WAT       -38.9320  -73.4160   -4.3330 O         1 <0>         0.0000
    663 WAT       -38.9320  -73.4160   -4.0830 O         1 <0>         0.0000
    664 WAT       -38.9320  -73.4160   -3.8330 O         1 <0>         0.0000
    665 WAT       -38.9320  -73.4160   -3.5830 O         1 <0>         0.0000
    666 WAT       -38.9320  -73.4160   -3.3330 O         1 <0>         0.0000
    667 WAT       -38.9320  -73.4160   -3.0830 O         1 <0>         0.0000
    668 WAT       -38.9320  -73.4160   -2.8330 O         1 <0>         0.0000
    669 WAT       -38.9320  -73.4160   -2.5830 O         1 <0>         0.0000
    670 WAT       -38.9320  -73.4160   -2.3330 O         1 <0>         0.0000
    671 WAT       -38.9320  -73.4160   -2.0830 O         1 <0>         0.0000
    672 WAT       -38.9320  -73.4160   -1.8330 O         1 <0>         0.0000
    673 WAT       -38.9320  -73.4160   -1.5830 O         1 <0>         0.0000
    674 WAT       -38.9320  -73.4160   -1.3330 O         1 <0>         0.0000
    675 WAT       -38.9320  -73.4160   -1.0830 O         1 <0>         0.0000
    676 WAT       -38.9320  -73.4160   -0.8330 O         1 <0>         0.0000
    677 WAT       -38.9320  -73.4160   -0.5830 O         1 <0>         0.0000
    678 WAT       -38.9320  -73.4160   -0.3330 O         1 <0>         0.0000
    679 WAT       -38.9320  -73.4160   -0.0830 O         1 <0>         0.0000
    680 WAT       -38.9320  -73.1660   -9.8330 O         1 <0>         0.0000
    681 WAT       -38.9320  -73.1660   -9.5830 O         1 <0>         0.0000
    682 WAT       -38.9320  -73.1660   -9.3330 O         1 <0>         0.0000
    683 WAT       -38.9320  -73.1660   -9.0830 O         1 <0>         0.0000
    684 WAT       -38.9320  -73.1660   -8.8330 O         1 <0>         0.0000
    685 WAT       -38.9320  -73.1660   -8.5830 O         1 <0>         0.0000
    686 WAT       -38.9320  -73.1660   -8.3330 O         1 <0>         0.0000
    687 WAT       -38.9320  -73.1660   -8.0830 O         1 <0>         0.0000
    688 WAT       -38.9320  -73.1660   -7.8330 O         1 <0>         0.0000
    689 WAT       -38.9320  -73.1660   -7.5830 O         1 <0>         0.0000
    690 WAT       -38.9320  -73.1660   -7.3330 O         1 <0>         0.0000
    691 WAT       -38.9320  -73.1660   -7.0830 O         1 <0>         0.0000
    692 WAT       -38.9320  -73.1660   -6.8330 O         1 <0>         0.0000
    693 WAT       -38.9320  -73.1660   -6.5830 O         1 <0>         0.0000
    694 WAT       -38.9320  -73.1660   -6.3330 O         1 <0>         0.0000
    695 WAT       -38.9320  -73.1660   -6.0830 O         1 <0>         0.0000
    696 WAT       -38.9320  -73.1660   -5.8330 O         1 <0>         0.0000
    697 WAT       -38.9320  -73.1660   -5.5830 O         1 <0>         0.0000
    698 WAT       -38.9320  -73.1660   -5.3330 O         1 <0>         0.0000
    699 WAT       -38.9320  -73.1660   -5.0830 O         1 <0>         0.0000
    700 WAT       -38.9320  -73.1660   -4.8330 O         1 <0>         0.0000
    701 WAT       -38.9320  -73.1660   -4.5830 O         1 <0>         0.0000
    702 WAT       -38.9320  -73.1660   -4.3330 O         1 <0>         0.0000
    703 WAT       -38.9320  -73.1660   -4.0830 O         1 <0>         0.0000
    704 WAT       -38.9320  -73.1660   -3.8330 O         1 <0>         0.0000
    705 WAT       -38.9320  -73.1660   -3.5830 O         1 <0>         0.0000
    706 WAT       -38.9320  -73.1660   -3.3330 O         1 <0>         0.0000
    707 WAT       -38.9320  -73.1660   -3.0830 O         1 <0>         0.0000
    708 WAT       -38.9320  -73.1660   -2.8330 O         1 <0>         0.0000
    709 WAT       -38.9320  -73.1660   -2.5830 O         1 <0>         0.0000
    710 WAT       -38.9320  -73.1660   -2.3330 O         1 <0>         0.0000
    711 WAT       -38.9320  -73.1660   -2.0830 O         1 <0>         0.0000
    712 WAT       -38.9320  -73.1660   -1.8330 O         1 <0>         0.0000
    713 WAT       -38.9320  -73.1660   -1.5830 O         1 <0>         0.0000
    714 WAT       -38.9320  -73.1660   -1.3330 O         1 <0>         0.0000
    715 WAT       -38.9320  -73.1660   -1.0830 O         1 <0>         0.0000
    716 WAT       -38.9320  -73.1660   -0.8330 O         1 <0>         0.0000
    717 WAT       -38.9320  -73.1660   -0.5830 O         1 <0>         0.0000
    718 WAT       -38.9320  -73.1660   -0.3330 O         1 <0>         0.0000
    719 WAT       -38.9320  -73.1660   -0.0830 O         1 <0>         0.0000
    720 WAT       -38.9320  -72.9160   -9.8330 O         1 <0>         0.0000
    721 WAT       -38.9320  -72.9160   -9.5830 O         1 <0>         0.0000
    722 WAT       -38.9320  -72.9160   -9.3330 O         1 <0>         0.0000
    723 WAT       -38.9320  -72.9160   -9.0830 O         1 <0>         0.0000
    724 WAT       -38.9320  -72.9160   -8.8330 O         1 <0>         0.0000
    725 WAT       -38.9320  -72.9160   -8.5830 O         1 <0>         0.0000
    726 WAT       -38.9320  -72.9160   -8.3330 O         1 <0>         0.0000
    727 WAT       -38.9320  -72.9160   -8.0830 O         1 <0>         0.0000
    728 WAT       -38.9320  -72.9160   -7.8330 O         1 <0>         0.0000
    729 WAT       -38.9320  -72.9160   -7.5830 O         1 <0>         0.0000
    730 WAT       -38.9320  -72.9160   -7.3330 O         1 <0>         0.0000
    731 WAT       -38.9320  -72.9160   -7.0830 O         1 <0>         0.0000
    732 WAT       -38.9320  -72.9160   -6.8330 O         1 <0>         0.0000
    733 WAT       -38.9320  -72.9160   -6.5830 O         1 <0>         0.0000
    734 WAT       -38.9320  -72.9160   -6.3330 O         1 <0>         0.0000
    735 WAT       -38.9320  -72.9160   -6.0830 O         1 <0>         0.0000
    736 WAT       -38.9320  -72.9160   -5.8330 O         1 <0>         0.0000
    737 WAT       -38.9320  -72.9160   -5.5830 O         1 <0>         0.0000
    738 WAT       -38.9320  -72.9160   -5.3330 O         1 <0>         0.0000
    739 WAT       -38.9320  -72.9160   -5.0830 O         1 <0>         0.0000
    740 WAT       -38.9320  -72.9160   -4.8330 O         1 <0>         0.0000
    741 WAT       -38.9320  -72.9160   -4.5830 O         1 <0>         0.0000
    742 WAT       -38.9320  -72.9160   -4.3330 O         1 <0>         0.0000
    743 WAT       -38.9320  -72.9160   -4.0830 O         1 <0>         0.0000
    744 WAT       -38.9320  -72.9160   -3.8330 O         1 <0>         0.0000
    745 WAT       -38.9320  -72.9160   -3.5830 O         1 <0>         0.0000
    746 WAT       -38.9320  -72.9160   -3.3330 O         1 <0>         0.0000
    747 WAT       -38.9320  -72.9160   -3.0830 O         1 <0>         0.0000
    748 WAT       -38.9320  -72.9160   -2.8330 O         1 <0>         0.0000
    749 WAT       -38.9320  -72.9160   -2.5830 O         1 <0>         0.0000
    750 WAT       -38.9320  -72.9160   -2.3330 O         1 <0>         0.0000
    751 WAT       -38.9320  -72.9160   -2.0830 O         1 <0>         0.0000
    752 WAT       -38.9320  -72.9160   -1.8330 O         1 <0>         0.0000
    753 WAT       -38.9320  -72.9160   -1.5830 O         1 <0>         0.0000
    754 WAT       -38.9320  -72.9160   -1.3330 O         1 <0>         0.0000
    755 WAT       -38.9320  -72.9160   -1.0830 O         1 <0>         0.0000
    756 WAT       -38.9320  -72.9160   -0.8330 O         1 <0>         0.0000
    757 WAT       -38.9320  -72.9160   -0.5830 O         1 <0>         0.0000
    758 WAT       -38.9320  -72.9160   -0.3330 O         1 <0>         0.0000
    759 WAT       -38.9320  -72.9160   -0.0830 O         1 <0>         0.0000
    760 WAT       -38.9320  -72.6660   -9.8330 O         1 <0>         0.0000
    761 WAT       -38.9320  -72.6660   -9.5830 O         1 <0>         0.0000
    762 WAT       -38.9320  -72.6660   -9.3330 O         1 <0>         0.0000
    763 WAT       -38.9320  -72.6660   -9.0830 O         1 <0>         0.0000
    764 WAT       -38.9320  -72.6660   -8.8330 O         1 <0>         0.0000
    765 WAT       -38.9320  -72.6660   -8.5830 O         1 <0>         0.0000
    766 WAT       -38.9320  -72.6660   -8.3330 O         1 <0>         0.0000
    767 WAT       -38.9320  -72.6660   -8.0830 O         1 <0>         0.0000
    768 WAT       -38.9320  -72.6660   -7.8330 O         1 <0>         0.0000
    769 WAT       -38.9320  -72.6660   -7.5830 O         1 <0>         0.0000
    770 WAT       -38.9320  -72.6660   -7.3330 O         1 <0>         0.0000
    771 WAT       -38.9320  -72.6660   -7.0830 O         1 <0>         0.0000
    772 WAT       -38.9320  -72.6660   -6.8330 O         1 <0>         0.0000
    773 WAT       -38.9320  -72.6660   -6.5830 O         1 <0>         0.0000
    774 WAT       -38.9320  -72.6660   -6.3330 O         1 <0>         0.0000
    775 WAT       -38.9320  -72.6660   -6.0830 O         1 <0>         0.0000
    776 WAT       -38.9320  -72.6660   -5.8330 O         1 <0>         0.0000
    777 WAT       -38.9320  -72.6660   -5.5830 O         1 <0>         0.0000
    778 WAT       -38.9320  -72.6660   -5.3330 O         1 <0>         0.0000
    779 WAT       -38.9320  -72.6660   -5.0830 O         1 <0>         0.0000
    780 WAT       -38.9320  -72.6660   -4.8330 O         1 <0>         0.0000
    781 WAT       -38.9320  -72.6660   -4.5830 O         1 <0>         0.0000
    782 WAT       -38.9320  -72.6660   -4.3330 O         1 <0>         0.0000
    783 WAT       -38.9320  -72.6660   -4.0830 O         1 <0>         0.0000
    784 WAT       -38.9320  -72.6660   -3.8330 O         1 <0>         0.0000
    785 WAT       -38.9320  -72.6660   -3.5830 O         1 <0>         0.0000
    786 WAT       -38.9320  -72.6660   -3.3330 O         1 <0>         0.0000
    787 WAT       -38.9320  -72.6660   -3.0830 O         1 <0>         0.0000
    788 WAT       -38.9320  -72.6660   -2.8330 O         1 <0>         0.0000
    789 WAT       -38.9320  -72.6660   -2.5830 O         1 <0>         0.0000
    790 WAT       -38.9320  -72.6660   -2.3330 O         1 <0>         0.0000
    791 WAT       -38.9320  -72.6660   -2.0830 O         1 <0>         0.0000
    792 WAT       -38.9320  -72.6660   -1.8330 O         1 <0>         0.0000
    793 WAT       -38.9320  -72.6660   -1.5830 O         1 <0>         0.0000
    794 WAT       -38.9320  -72.6660   -1.3330 O         1 <0>         0.0000
    795 WAT       -38.9320  -72.6660   -1.0830 O         1 <0>         0.0000
    796 WAT       -38.9320  -72.6660   -0.8330 O         1 <0>         0.0000
    797 WAT       -38.9320  -72.6660   -0.5830 O         1 <0>         0.0000
    798 WAT       -38.9320  -72.6660   -0.3330 O         1 <0>         0.0000
    799 WAT       -38.9320  -72.6660   -0.0830 O         1 <0>         0.0000
    800 WAT       -38.9320  -72.4160   -9.8330 O         1 <0>         0.0000
    801 WAT       -38.9320  -72.4160   -9.5830 O         1 <0>         0.0000
    802 WAT       -38.9320  -72.4160   -9.3330 O         1 <0>         0.0000
    803 WAT       -38.9320  -72.4160   -9.0830 O         1 <0>         0.0000
    804 WAT       -38.9320  -72.4160   -8.8330 O         1 <0>         0.0000
    805 WAT       -38.9320  -72.4160   -8.5830 O         1 <0>         0.0000
    806 WAT       -38.9320  -72.4160   -8.3330 O         1 <0>         0.0000
    807 WAT       -38.9320  -72.4160   -8.0830 O         1 <0>         0.0000
    808 WAT       -38.9320  -72.4160   -7.8330 O         1 <0>         0.0000
    809 WAT       -38.9320  -72.4160   -7.5830 O         1 <0>         0.0000
    810 WAT       -38.9320  -72.4160   -7.3330 O         1 <0>         0.0000
    811 WAT       -38.9320  -72.4160   -7.0830 O         1 <0>         0.0000
    812 WAT       -38.9320  -72.4160   -6.8330 O         1 <0>         0.0000
    813 WAT       -38.9320  -72.4160   -6.5830 O         1 <0>         0.0000
    814 WAT       -38.9320  -72.4160   -6.3330 O         1 <0>         0.0000
    815 WAT       -38.9320  -72.4160   -6.0830 O         1 <0>         0.0000
    816 WAT       -38.9320  -72.4160   -5.8330 O         1 <0>         0.0000
    817 WAT       -38.9320  -72.4160   -5.5830 O         1 <0>         0.0000
    818 WAT       -38.9320  -72.4160   -5.3330 O         1 <0>         0.0000
    819 WAT       -38.9320  -72.4160   -5.0830 O         1 <0>         0.0000
    820 WAT       -38.9320  -72.4160   -4.8330 O         1 <0>         0.0000
    821 WAT       -38.9320  -72.4160   -4.5830 O         1 <0>         0.0000
    822 WAT       -38.9320  -72.4160   -4.3330 O         1 <0>         0.0000
    823 WAT       -38.9320  -72.4160   -4.0830 O         1 <0>         0.0000
    824 WAT       -38.9320  -72.4160   -3.8330 O         1 <0>         0.0000
    825 WAT       -38.9320  -72.4160   -3.5830 O         1 <0>         0.0000
    826 WAT       -38.9320  -72.4160   -3.3330 O         1 <0>         0.0000
    827 WAT       -38.9320  -72.4160   -3.0830 O         1 <0>         0.0000
    828 WAT       -38.9320  -72.4160   -2.8330 O         1 <0>         0.0000
    829 WAT       -38.9320  -72.4160   -2.5830 O         1 <0>         0.0000
    830 WAT       -38.9320  -72.4160   -2.3330 O         1 <0>         0.0000
    831 WAT       -38.9320  -72.4160   -2.0830 O         1 <0>         0.0000
    832 WAT       -38.9320  -72.4160   -1.8330 O         1 <0>         0.0000
    833 WAT       -38.9320  -72.4160   -1.5830 O         1 <0>         0.0000
    834 WAT       -38.9320  -72.4160   -1.3330 O         1 <0>         0.0000
    835 WAT       -38.9320  -72.4160   -1.0830 O         1 <0>         0.0000
    836 WAT       -38.9320  -72.4160   -0.8330 O         1 <0>         0.0000
    837 WAT       -38.9320  -72.4160   -0.5830 O         1 <0>         0.0000
    838 WAT       -38.9320  -72.4160   -0.3330 O         1 <0>         0.0000
    839 WAT       -38.9320  -72.4160   -0.0830 O         1 <0>         0.0000
    840 WAT       -38.9320  -72.1660   -9.8330 O         1 <0>         0.0000
    841 WAT       -38.9320  -72.1660   -9.5830 O         1 <0>         0.0000
    842 WAT       -38.9320  -72.1660   -9.3330 O         1 <0>         0.0000
    843 WAT       -38.9320  -72.1660   -9.0830 O         1 <0>         0.0000
    844 WAT       -38.9320  -72.1660   -8.8330 O         1 <0>         0.0000
    845 WAT       -38.9320  -72.1660   -8.5830 O         1 <0>         0.0000
    846 WAT       -38.9320  -72.1660   -8.3330 O         1 <0>         0.0000
    847 WAT       -38.9320  -72.1660   -8.0830 O         1 <0>         0.0000
    848 WAT       -38.9320  -72.1660   -7.8330 O         1 <0>         0.0000
    849 WAT       -38.9320  -72.1660   -7.5830 O         1 <0>         0.0000
    850 WAT       -38.9320  -72.1660   -7.3330 O         1 <0>         0.0000
    851 WAT       -38.9320  -72.1660   -7.0830 O         1 <0>         0.0000
    852 WAT       -38.9320  -72.1660   -6.8330 O         1 <0>         0.0000
    853 WAT       -38.9320  -72.1660   -6.5830 O         1 <0>         0.0000
    854 WAT       -38.9320  -72.1660   -6.3330 O         1 <0>         0.0000
    855 WAT       -38.9320  -72.1660   -6.0830 O         1 <0>         0.0000
    856 WAT       -38.9320  -72.1660   -5.8330 O         1 <0>         0.0000
    857 WAT       -38.9320  -72.1660   -5.5830 O         1 <0>         0.0000
    858 WAT       -38.9320  -72.1660   -5.3330 O         1 <0>         0.0000
    859 WAT       -38.9320  -72.1660   -5.0830 O         1 <0>         0.0000
    860 WAT       -38.9320  -72.1660   -4.8330 O         1 <0>         0.0000
    861 WAT       -38.9320  -72.1660   -4.5830 O         1 <0>         0.0000
    862 WAT       -38.9320  -72.1660   -4.3330 O         1 <0>         0.0000
    863 WAT       -38.9320  -72.1660   -4.0830 O         1 <0>         0.0000
    864 WAT       -38.9320  -72.1660   -3.8330 O         1 <0>         0.0000
    865 WAT       -38.9320  -72.1660   -3.5830 O         1 <0>         0.0000
    866 WAT       -38.9320  -72.1660   -3.3330 O         1 <0>         0.0000
    867 WAT       -38.9320  -72.1660   -3.0830 O         1 <0>         0.0000
    868 WAT       -38.9320  -72.1660   -2.8330 O         1 <0>         0.0000
    869 WAT       -38.9320  -72.1660   -2.5830 O         1 <0>         0.0000
    870 WAT       -38.9320  -72.1660   -2.3330 O         1 <0>         0.0000
    871 WAT       -38.9320  -72.1660   -2.0830 O         1 <0>         0.0000
    872 WAT       -38.9320  -72.1660   -1.8330 O         1 <0>         0.0000
    873 WAT       -38.9320  -72.1660   -1.5830 O         1 <0>         0.0000
    874 WAT       -38.9320  -72.1660   -1.3330 O         1 <0>         0.0000
    875 WAT       -38.9320  -72.1660   -1.0830 O         1 <0>         0.0000
    876 WAT       -38.9320  -72.1660   -0.8330 O         1 <0>         0.0000
    877 WAT       -38.9320  -72.1660   -0.5830 O         1 <0>         0.0000
    878 WAT       -38.9320  -72.1660   -0.3330 O         1 <0>         0.0000
    879 WAT       -38.9320  -72.1660   -0.0830 O         1 <0>         0.0000
    880 WAT       -38.9320  -71.9160   -9.8330 O         1 <0>         0.0000
    881 WAT       -38.9320  -71.9160   -9.5830 O         1 <0>         0.0000
    882 WAT       -38.9320  -71.9160   -9.3330 O         1 <0>         0.0000
    883 WAT       -38.9320  -71.9160   -9.0830 O         1 <0>         0.0000
    884 WAT       -38.9320  -71.9160   -8.8330 O         1 <0>         0.0000
    885 WAT       -38.9320  -71.9160   -8.5830 O         1 <0>         0.0000
    886 WAT       -38.9320  -71.9160   -8.3330 O         1 <0>         0.0000
    887 WAT       -38.9320  -71.9160   -8.0830 O         1 <0>         0.0000
    888 WAT       -38.9320  -71.9160   -7.8330 O         1 <0>         0.0000
    889 WAT       -38.9320  -71.9160   -7.5830 O         1 <0>         0.0000
    890 WAT       -38.9320  -71.9160   -7.3330 O         1 <0>         0.0000
    891 WAT       -38.9320  -71.9160   -7.0830 O         1 <0>         0.0000
    892 WAT       -38.9320  -71.9160   -6.8330 O         1 <0>         0.0000
    893 WAT       -38.9320  -71.9160   -6.5830 O         1 <0>         0.0000
    894 WAT       -38.9320  -71.9160   -6.3330 O         1 <0>         0.0000
    895 WAT       -38.9320  -71.9160   -6.0830 O         1 <0>         0.0000
    896 WAT       -38.9320  -71.9160   -5.8330 O         1 <0>         0.0000
    897 WAT       -38.9320  -71.9160   -5.5830 O         1 <0>         0.0000
    898 WAT       -38.9320  -71.9160   -5.3330 O         1 <0>         0.0000
    899 WAT       -38.9320  -71.9160   -5.0830 O         1 <0>         0.0000
    900 WAT       -38.9320  -71.9160   -4.8330 O         1 <0>         0.0000
    901 WAT       -38.9320  -71.9160   -4.5830 O         1 <0>         0.0000
    902 WAT       -38.9320  -71.9160   -4.3330 O         1 <0>         0.0000
    903 WAT       -38.9320  -71.9160   -4.0830 O         1 <0>         0.0000
    904 WAT       -38.9320  -71.9160   -3.8330 O         1 <0>         0.0000
    905 WAT       -38.9320  -71.9160   -3.5830 O         1 <0>         0.0000
    906 WAT       -38.9320  -71.9160   -3.3330 O         1 <0>         0.0000
    907 WAT       -38.9320  -71.9160   -3.0830 O         1 <0>         0.0000
    908 WAT       -38.9320  -71.9160   -2.8330 O         1 <0>         0.0000
    909 WAT       -38.9320  -71.9160   -2.5830 O         1 <0>         0.0000
    910 WAT       -38.9320  -71.9160   -2.3330 O         1 <0>         0.0000
    911 WAT       -38.9320  -71.9160   -2.0830 O         1 <0>         0.0000
    912 WAT       -38.9320  -71.9160   -1.8330 O         1 <0>         0.0000
    913 WAT       -38.9320  -71.9160   -1.5830 O         1 <0>         0.0000
    914 WAT       -38.9320  -71.9160   -1.3330 O         1 <0>         0.0000
    915 WAT       -38.9320  -71.9160   -1.0830 O         1 <0>         0.0000
    916 WAT       -38.9320  -71.9160   -0.8330 O         1 <0>         0.0000
    917 WAT       -38.9320  -71.9160   -0.5830 O         1 <0>         0.0000
    918 WAT       -38.9320  -71.9160   -0.3330 O         1 <0>         0.0000
    919 WAT       -38.9320  -71.9160   -0.0830 O         1 <0>         0.0000
    920 WAT       -38.9320  -71.6660   -9.8330 O         1 <0>         0.0000
    921 WAT       -38.9320  -71.6660   -9.5830 O         1 <0>         0.0000
    922 WAT       -38.9320  -71.6660   -9.3330 O         1 <0>         0.0000
    923 WAT       -38.9320  -71.6660   -9.0830 O         1 <0>         0.0000
    924 WAT       -38.9320  -71.6660   -8.8330 O         1 <0>         0.0000
    925 WAT       -38.9320  -71.6660   -8.5830 O         1 <0>         0.0000
    926 WAT       -38.9320  -71.6660   -8.3330 O         1 <0>         0.0000
    927 WAT       -38.9320  -71.6660   -8.0830 O         1 <0>         0.0000
    928 WAT       -38.9320  -71.6660   -7.8330 O         1 <0>         0.0000
    929 WAT       -38.9320  -71.6660   -7.5830 O         1 <0>         0.0000
    930 WAT       -38.9320  -71.6660   -7.3330 O         1 <0>         0.0000
    931 WAT       -38.9320  -71.6660   -7.0830 O         1 <0>         0.0000
    932 WAT       -38.9320  -71.6660   -6.8330 O         1 <0>         0.0000
    933 WAT       -38.9320  -71.6660   -6.5830 O         1 <0>         0.0000
    934 WAT       -38.9320  -71.6660   -6.3330 O         1 <0>         0.0000
    935 WAT       -38.9320  -71.6660   -6.0830 O         1 <0>         0.0000
    936 WAT       -38.9320  -71.6660   -5.8330 O         1 <0>         0.0000
    937 WAT       -38.9320  -71.6660   -5.5830 O         1 <0>         0.0000
    938 WAT       -38.9320  -71.6660   -5.3330 O         1 <0>         0.0000
    939 WAT       -38.9320  -71.6660   -5.0830 O         1 <0>         0.0000
    940 WAT       -38.9320  -71.6660   -4.8330 O         1 <0>         0.0000
    941 WAT       -38.9320  -71.6660   -4.5830 O         1 <0>         0.0000
    942 WAT       -38.9320  -71.6660   -4.3330 O         1 <0>         0.0000
    943 WAT       -38.9320  -71.6660   -4.0830 O         1 <0>         0.0000
    944 WAT       -38.9320  -71.6660   -3.8330 O         1 <0>         0.0000
    945 WAT       -38.9320  -71.6660   -3.5830 O         1 <0>         0.0000
    946 WAT       -38.9320  -71.6660   -3.3330 O         1 <0>         0.0000
    947 WAT       -38.9320  -71.6660   -3.0830 O         1 <0>         0.0000
    948 WAT       -38.9320  -71.6660   -2.8330 O         1 <0>         0.0000
    949 WAT       -38.9320  -71.6660   -2.5830 O         1 <0>         0.0000
    950 WAT       -38.9320  -71.6660   -2.3330 O         1 <0>         0.0000
    951 WAT       -38.9320  -71.6660   -2.0830 O         1 <0>         0.0000
    952 WAT       -38.9320  -71.6660   -1.8330 O         1 <0>         0.0000
    953 WAT       -38.9320  -71.6660   -1.5830 O         1 <0>         0.0000
    954 WAT       -38.9320  -71.6660   -1.3330 O         1 <0>         0.0000
    955 WAT       -38.9320  -71.6660   -1.0830 O         1 <0>         0.0000
    956 WAT       -38.9320  -71.6660   -0.8330 O         1 <0>         0.0000
    957 WAT       -38.9320  -71.6660   -0.5830 O         1 <0>         0.0000
    958 WAT       -38.9320  -71.6660   -0.3330 O         1 <0>         0.0000
    959 WAT       -38.9320  -71.6660   -0.0830 O         1 <0>         0.0000
    960 WAT       -38.9320  -71.4160   -9.8330 O         1 <0>         0.0000
    961 WAT       -38.9320  -71.4160   -9.5830 O         1 <0>         0.0000
    962 WAT       -38.9320  -71.4160   -9.3330 O         1 <0>         0.0000
    963 WAT       -38.9320  -71.4160   -9.0830 O         1 <0>         0.0000
    964 WAT       -38.9320  -71.4160   -8.8330 O         1 <0>         0.0000
    965 WAT       -38.9320  -71.4160   -8.5830 O         1 <0>         0.0000
    966 WAT       -38.9320  -71.4160   -8.3330 O         1 <0>         0.0000
    967 WAT       -38.9320  -71.4160   -8.0830 O         1 <0>         0.0000
    968 WAT       -38.9320  -71.4160   -7.8330 O         1 <0>         0.0000
    969 WAT       -38.9320  -71.4160   -7.5830 O         1 <0>         0.0000
    970 WAT       -38.9320  -71.4160   -7.3330 O         1 <0>         0.0000
    971 WAT       -38.9320  -71.4160   -7.0830 O         1 <0>         0.0000
    972 WAT       -38.9320  -71.4160   -6.8330 O         1 <0>         0.0000
    973 WAT       -38.9320  -71.4160   -6.5830 O         1 <0>         0.0000
    974 WAT       -38.9320  -71.4160   -6.3330 O         1 <0>         0.0000
    975 WAT       -38.9320  -71.4160   -6.0830 O         1 <0>         0.0000
    976 WAT       -38.9320  -71.4160   -5.8330 O         1 <0>         0.0000
    977 WAT       -38.9320  -71.4160   -5.5830 O         1 <0>         0.0000
    978 WAT       -38.9320  -71.4160   -5.3330 O         1 <0>         0.0000
    979 WAT       -38.9320  -71.4160   -5.0830 O         1 <0>         0.0000
    980 WAT       -38.9320  -71.4160   -4.8330 O         1 <0>         0.0000
    981 WAT       -38.9320  -71.4160   -4.5830 O         1 <0>         0.0000
    982 WAT       -38.9320  -71.4160   -4.3330 O         1 <0>         0.0000
    983 WAT       -38.9320  -71.4160   -4.0830 O         1 <0>         0.0000
    984 WAT       -38.9320  -71.4160   -3.8330 O         1 <0>         0.0000
    985 WAT       -38.9320  -71.4160   -3.5830 O         1 <0>         0.0000
    986 WAT       -38.9320  -71.4160   -3.3330 O         1 <0>         0.0000
    987 WAT       -38.9320  -71.4160   -3.0830 O         1 <0>         0.0000
    988 WAT       -38.9320  -71.4160   -2.8330 O         1 <0>         0.0000
    989 WAT       -38.9320  -71.4160   -2.5830 O         1 <0>         0.0000
    990 WAT       -38.9320  -71.4160   -2.3330 O         1 <0>         0.0000
    991 WAT       -38.9320  -71.4160   -2.0830 O         1 <0>         0.0000
    992 WAT       -38.9320  -71.4160   -1.8330 O         1 <0>         0.0000
    993 WAT       -38.9320  -71.4160   -1.5830 O         1 <0>         0.0000
    994 WAT       -38.9320  -71.4160   -1.3330 O         1 <0>         0.0000
    995 WAT       -38.9320  -71.4160   -1.0830 O         1 <0>         0.0000
    996 WAT       -38.9320  -71.4160   -0.8330 O         1 <0>         0.0000
    997 WAT       -38.9320  -71.4160   -0.5830 O         1 <0>         0.0000
    998 WAT       -38.9320  -71.4160   -0.3330 O         1 <0>         0.0000
    999 WAT       -38.9320  -71.4160   -0.0830 O         1 <0>         0.0000
   1000 WAT       -38.9320  -71.1660   -9.8330 O         1 <0>         0.0000
   1001 WAT       -38.9320  -71.1660   -9.5830 O         1 <0>         0.0000
   1002 WAT       -38.9320  -71.1660   -9.3330 O         1 <0>         0.0000
   1003 WAT       -38.9320  -71.1660   -9.0830 O         1 <0>         0.0000
   1004 WAT       -38.9320  -71.1660   -8.8330 O         1 <0>         0.0000
   1005 WAT       -38.9320  -71.1660   -8.5830 O         1 <0>         0.0000
   1006 WAT       -38.9320  -71.1660   -8.3330 O         1 <0>         0.0000
   1007 WAT       -38.9320  -71.1660   -8.0830 O         1 <0>         0.0000
   1008 WAT       -38.9320  -71.1660   -7.8330 O         1 <0>         0.0000
   1009 WAT       -38.9320  -71.1660   -7.5830 O         1 <0>         0.0000
   1010 WAT       -38.9320  -71.1660   -7.3330 O         1 <0>         0.0000
   1011 WAT       -38.9320  -71.1660   -7.0830 O         1 <0>         0.0000
   1012 WAT       -38.9320  -71.1660   -6.8330 O         1 <0>         0.0000
   1013 WAT       -38.9320  -71.1660   -6.5830 O         1 <0>         0.0000
   1014 WAT       -38.9320  -71.1660   -6.3330 O         1 <0>         0.0000
   1015 WAT       -38.9320  -71.1660   -6.0830 O         1 <0>         0.0000
   1016 WAT       -38.9320  -71.1660   -5.8330 O         1 <0>         0.0000
   1017 WAT       -38.9320  -71.1660   -5.5830 O         1 <0>         0.0000
   1018 WAT       -38.9320  -71.1660   -5.3330 O         1 <0>         0.0000
   1019 WAT       -38.9320  -71.1660   -5.0830 O         1 <0>         0.0000
   1020 WAT       -38.9320  -71.1660   -4.8330 O         1 <0>         0.0000
   1021 WAT       -38.9320  -71.1660   -4.5830 O         1 <0>         0.0000
   1022 WAT       -38.9320  -71.1660   -4.3330 O         1 <0>         0.0000
   1023 WAT       -38.9320  -71.1660   -4.0830 O         1 <0>         0.0000
   1024 WAT       -38.9320  -71.1660   -3.8330 O         1 <0>         0.0000
   1025 WAT       -38.9320  -71.1660   -3.5830 O         1 <0>         0.0000
   1026 WAT       -38.9320  -71.1660   -3.3330 O         1 <0>         0.0000
   1027 WAT       -38.9320  -71.1660   -3.0830 O         1 <0>         0.0000
   1028 WAT       -38.9320  -71.1660   -2.8330 O         1 <0>         0.0000
   1029 WAT       -38.9320  -71.1660   -2.5830 O         1 <0>         0.0000
   1030 WAT       -38.9320  -71.1660   -2.3330 O         1 <0>         0.0000
   1031 WAT       -38.9320  -71.1660   -2.0830 O         1 <0>         0.0000
   1032 WAT       -38.9320  -71.1660   -1.8330 O         1 <0>         0.0000
   1033 WAT       -38.9320  -71.1660   -1.5830 O         1 <0>         0.0000
   1034 WAT       -38.9320  -71.1660   -1.3330 O         1 <0>         0.0000
   1035 WAT       -38.9320  -71.1660   -1.0830 O         1 <0>         0.0000
   1036 WAT       -38.9320  -71.1660   -0.8330 O         1 <0>         0.0000
   1037 WAT       -38.9320  -71.1660   -0.5830 O         1 <0>         0.0000
   1038 WAT       -38.9320  -71.1660   -0.3330 O         1 <0>         0.0000
   1039 WAT       -38.9320  -71.1660   -0.0830 O         1 <0>         0.0000
   1040 WAT       -38.9320  -70.9160   -9.8330 O         1 <0>         0.0000
   1041 WAT       -38.9320  -70.9160   -9.5830 O         1 <0>         0.0000
   1042 WAT       -38.9320  -70.9160   -9.3330 O         1 <0>         0.0000
   1043 WAT       -38.9320  -70.9160   -9.0830 O         1 <0>         0.0000
   1044 WAT       -38.9320  -70.9160   -8.8330 O         1 <0>         0.0000
   1045 WAT       -38.9320  -70.9160   -8.5830 O         1 <0>         0.0000
   1046 WAT       -38.9320  -70.9160   -8.3330 O         1 <0>         0.0000
   1047 WAT       -38.9320  -70.9160   -8.0830 O         1 <0>         0.0000
   1048 WAT       -38.9320  -70.9160   -7.8330 O         1 <0>         0.0000
   1049 WAT       -38.9320  -70.9160   -7.5830 O         1 <0>         0.0000
   1050 WAT       -38.9320  -70.9160   -7.3330 O         1 <0>         0.0000
   1051 WAT       -38.9320  -70.9160   -7.0830 O         1 <0>         0.0000
   1052 WAT       -38.9320  -70.9160   -6.8330 O         1 <0>         0.0000
   1053 WAT       -38.9320  -70.9160   -6.5830 O         1 <0>         0.0000
   1054 WAT       -38.9320  -70.9160   -6.3330 O         1 <0>         0.0000
   1055 WAT       -38.9320  -70.9160   -6.0830 O         1 <0>         0.0000
   1056 WAT       -38.9320  -70.9160   -5.8330 O         1 <0>         0.0000
   1057 WAT       -38.9320  -70.9160   -5.5830 O         1 <0>         0.0000
   1058 WAT       -38.9320  -70.9160   -5.3330 O         1 <0>         0.0000
   1059 WAT       -38.9320  -70.9160   -5.0830 O         1 <0>         0.0000
   1060 WAT       -38.9320  -70.9160   -4.8330 O         1 <0>         0.0000
   1061 WAT       -38.9320  -70.9160   -4.5830 O         1 <0>         0.0000
   1062 WAT       -38.9320  -70.9160   -4.3330 O         1 <0>         0.0000
   1063 WAT       -38.9320  -70.9160   -4.0830 O         1 <0>         0.0000
   1064 WAT       -38.9320  -70.9160   -3.8330 O         1 <0>         0.0000
   1065 WAT       -38.9320  -70.9160   -3.5830 O         1 <0>         0.0000
   1066 WAT       -38.9320  -70.9160   -3.3330 O         1 <0>         0.0000
   1067 WAT       -38.9320  -70.9160   -3.0830 O         1 <0>         0.0000
   1068 WAT       -38.9320  -70.9160   -2.8330 O         1 <0>         0.0000
   1069 WAT       -38.9320  -70.9160   -2.5830 O         1 <0>         0.0000
   1070 WAT       -38.9320  -70.9160   -2.3330 O         1 <0>         0.0000
   1071 WAT       -38.9320  -70.9160   -2.0830 O         1 <0>         0.0000
   1072 WAT       -38.9320  -70.9160   -1.8330 O         1 <0>         0.0000
   1073 WAT       -38.9320  -70.9160   -1.5830 O         1 <0>         0.0000
   1074 WAT       -38.9320  -70.9160   -1.3330 O         1 <0>         0.0000
   1075 WAT       -38.9320  -70.9160   -1.0830 O         1 <0>         0.0000
   1076 WAT       -38.9320  -70.9160   -0.8330 O         1 <0>         0.0000
   1077 WAT       -38.9320  -70.9160   -0.5830 O         1 <0>         0.0000
   1078 WAT       -38.9320  -70.9160   -0.3330 O         1 <0>         0.0000
   1079 WAT       -38.9320  -70.9160   -0.0830 O         1 <0>         0.0000
   1080 WAT       -38.9320  -70.6660   -9.8330 O         1 <0>         0.0000
   1081 WAT       -38.9320  -70.6660   -9.5830 O         1 <0>         0.0000
   1082 WAT       -38.9320  -70.6660   -9.3330 O         1 <0>         0.0000
   1083 WAT       -38.9320  -70.6660   -9.0830 O         1 <0>         0.0000
   1084 WAT       -38.9320  -70.6660   -8.8330 O         1 <0>         0.0000
   1085 WAT       -38.9320  -70.6660   -8.5830 O         1 <0>         0.0000
   1086 WAT       -38.9320  -70.6660   -8.3330 O         1 <0>         0.0000
   1087 WAT       -38.9320  -70.6660   -8.0830 O         1 <0>         0.0000
   1088 WAT       -38.9320  -70.6660   -7.8330 O         1 <0>         0.0000
   1089 WAT       -38.9320  -70.6660   -7.5830 O         1 <0>         0.0000
   1090 WAT       -38.9320  -70.6660   -7.3330 O         1 <0>         0.0000
   1091 WAT       -38.9320  -70.6660   -7.0830 O         1 <0>         0.0000
   1092 WAT       -38.9320  -70.6660   -6.8330 O         1 <0>         0.0000
   1093 WAT       -38.9320  -70.6660   -6.5830 O         1 <0>         0.0000
   1094 WAT       -38.9320  -70.6660   -6.3330 O         1 <0>         0.0000
   1095 WAT       -38.9320  -70.6660   -6.0830 O         1 <0>         0.0000
   1096 WAT       -38.9320  -70.6660   -5.8330 O         1 <0>         0.0000
   1097 WAT       -38.9320  -70.6660   -5.5830 O         1 <0>         0.0000
   1098 WAT       -38.9320  -70.6660   -5.3330 O         1 <0>         0.0000
   1099 WAT       -38.9320  -70.6660   -5.0830 O         1 <0>         0.0000
   1100 WAT       -38.9320  -70.6660   -4.8330 O         1 <0>         0.0000
   1101 WAT       -38.9320  -70.6660   -4.5830 O         1 <0>         0.0000
   1102 WAT       -38.9320  -70.6660   -4.3330 O         1 <0>         0.0000
   1103 WAT       -38.9320  -70.6660   -4.0830 O         1 <0>         0.0000
   1104 WAT       -38.9320  -70.6660   -3.8330 O         1 <0>         0.0000
   1105 WAT       -38.9320  -70.6660   -3.5830 O         1 <0>         0.0000
   1106 WAT       -38.9320  -70.6660   -3.3330 O         1 <0>         0.0000
   1107 WAT       -38.9320  -70.6660   -3.0830 O         1 <0>         0.0000
   1108 WAT       -38.9320  -70.6660   -2.8330 O         1 <0>         0.0000
   1109 WAT       -38.9320  -70.6660   -2.5830 O         1 <0>         0.0000
   1110 WAT       -38.9320  -70.6660   -2.3330 O         1 <0>         0.0000
   1111 WAT       -38.9320  -70.6660   -2.0830 O         1 <0>         0.0000
   1112 WAT       -38.9320  -70.6660   -1.8330 O         1 <0>         0.0000
   1113 WAT       -38.9320  -70.6660   -1.5830 O         1 <0>         0.0000
   1114 WAT       -38.9320  -70.6660   -1.3330 O         1 <0>         0.0000
   1115 WAT       -38.9320  -70.6660   -1.0830 O         1 <0>         0.0000
   1116 WAT       -38.9320  -70.6660   -0.8330 O         1 <0>         0.0000
   1117 WAT       -38.9320  -70.6660   -0.5830 O         1 <0>         0.0000
   1118 WAT       -38.9320  -70.6660   -0.3330 O         1 <0>         0.0000
   1119 WAT       -38.9320  -70.6660   -0.0830 O         1 <0>         0.0000
   1120 WAT       -38.9320  -70.4160   -9.8330 O         1 <0>         0.0000
   1121 WAT       -38.9320  -70.4160   -9.5830 O         1 <0>         0.0000
   1122 WAT       -38.9320  -70.4160   -9.3330 O         1 <0>         0.0000
   1123 WAT       -38.9320  -70.4160   -9.0830 O         1 <0>         0.0000
   1124 WAT       -38.9320  -70.4160   -8.8330 O         1 <0>         0.0000
   1125 WAT       -38.9320  -70.4160   -8.5830 O         1 <0>         0.0000
   1126 WAT       -38.9320  -70.4160   -8.3330 O         1 <0>         0.0000
   1127 WAT       -38.9320  -70.4160   -8.0830 O         1 <0>         0.0000
   1128 WAT       -38.9320  -70.4160   -7.8330 O         1 <0>         0.0000
   1129 WAT       -38.9320  -70.4160   -7.5830 O         1 <0>         0.0000
   1130 WAT       -38.9320  -70.4160   -7.3330 O         1 <0>         0.0000
   1131 WAT       -38.9320  -70.4160   -7.0830 O         1 <0>         0.0000
   1132 WAT       -38.9320  -70.4160   -6.8330 O         1 <0>         0.0000
   1133 WAT       -38.9320  -70.4160   -6.5830 O         1 <0>         0.0000
   1134 WAT       -38.9320  -70.4160   -6.3330 O         1 <0>         0.0000
   1135 WAT       -38.9320  -70.4160   -6.0830 O         1 <0>         0.0000
   1136 WAT       -38.9320  -70.4160   -5.8330 O         1 <0>         0.0000
   1137 WAT       -38.9320  -70.4160   -5.5830 O         1 <0>         0.0000
   1138 WAT       -38.9320  -70.4160   -5.3330 O         1 <0>         0.0000
   1139 WAT       -38.9320  -70.4160   -5.0830 O         1 <0>         0.0000
   1140 WAT       -38.9320  -70.4160   -4.8330 O         1 <0>         0.0000
   1141 WAT       -38.9320  -70.4160   -4.5830 O         1 <0>         0.0000
   1142 WAT       -38.9320  -70.4160   -4.3330 O         1 <0>         0.0000
   1143 WAT       -38.9320  -70.4160   -4.0830 O         1 <0>         0.0000
   1144 WAT       -38.9320  -70.4160   -3.8330 O         1 <0>         0.0000
   1145 WAT       -38.9320  -70.4160   -3.5830 O         1 <0>         0.0000
   1146 WAT       -38.9320  -70.4160   -3.3330 O         1 <0>         0.0000
   1147 WAT       -38.9320  -70.4160   -3.0830 O         1 <0>         0.0000
   1148 WAT       -38.9320  -70.4160   -2.8330 O         1 <0>         0.0000
   1149 WAT       -38.9320  -70.4160   -2.5830 O         1 <0>         0.0000
   1150 WAT       -38.9320  -70.4160   -2.3330 O         1 <0>         0.0000
   1151 WAT       -38.9320  -70.4160   -2.0830 O         1 <0>         0.0000
   1152 WAT       -38.9320  -70.4160   -1.8330 O         1 <0>         0.0000
   1153 WAT       -38.9320  -70.4160   -1.5830 O         1 <0>         0.0000
   1154 WAT       -38.9320  -70.4160   -1.3330 O         1 <0>         0.0000
   1155 WAT       -38.9320  -70.4160   -1.0830 O         1 <0>         0.0000
   1156 WAT       -38.9320  -70.4160   -0.8330 O         1 <0>         0.0000
   1157 WAT       -38.9320  -70.4160   -0.5830 O         1 <0>         0.0000
   1158 WAT       -38.9320  -70.4160   -0.3330 O         1 <0>         0.0000
   1159 WAT       -38.9320  -70.4160   -0.0830 O         1 <0>         0.0000
   1160 WAT       -38.9320  -70.1660   -9.8330 O         1 <0>         0.0000
   1161 WAT       -38.9320  -70.1660   -9.5830 O         1 <0>         0.0000
   1162 WAT       -38.9320  -70.1660   -9.3330 O         1 <0>         0.0000
   1163 WAT       -38.9320  -70.1660   -9.0830 O         1 <0>         0.0000
   1164 WAT       -38.9320  -70.1660   -8.8330 O         1 <0>         0.0000
   1165 WAT       -38.9320  -70.1660   -8.5830 O         1 <0>         0.0000
   1166 WAT       -38.9320  -70.1660   -8.3330 O         1 <0>         0.0000
   1167 WAT       -38.9320  -70.1660   -8.0830 O         1 <0>         0.0000
   1168 WAT       -38.9320  -70.1660   -7.8330 O         1 <0>         0.0000
   1169 WAT       -38.9320  -70.1660   -7.5830 O         1 <0>         0.0000
   1170 WAT       -38.9320  -70.1660   -7.3330 O         1 <0>         0.0000
   1171 WAT       -38.9320  -70.1660   -7.0830 O         1 <0>         0.0000
   1172 WAT       -38.9320  -70.1660   -6.8330 O         1 <0>         0.0000
   1173 WAT       -38.9320  -70.1660   -6.5830 O         1 <0>         0.0000
   1174 WAT       -38.9320  -70.1660   -6.3330 O         1 <0>         0.0000
   1175 WAT       -38.9320  -70.1660   -6.0830 O         1 <0>         0.0000
   1176 WAT       -38.9320  -70.1660   -5.8330 O         1 <0>         0.0000
   1177 WAT       -38.9320  -70.1660   -5.5830 O         1 <0>         0.0000
   1178 WAT       -38.9320  -70.1660   -5.3330 O         1 <0>         0.0000
   1179 WAT       -38.9320  -70.1660   -5.0830 O         1 <0>         0.0000
   1180 WAT       -38.9320  -70.1660   -4.8330 O         1 <0>         0.0000
   1181 WAT       -38.9320  -70.1660   -4.5830 O         1 <0>         0.0000
   1182 WAT       -38.9320  -70.1660   -4.3330 O         1 <0>         0.0000
   1183 WAT       -38.9320  -70.1660   -4.0830 O         1 <0>         0.0000
   1184 WAT       -38.9320  -70.1660   -3.8330 O         1 <0>         0.0000
   1185 WAT       -38.9320  -70.1660   -3.5830 O         1 <0>         0.0000
   1186 WAT       -38.9320  -70.1660   -3.3330 O         1 <0>         0.0000
   1187 WAT       -38.9320  -70.1660   -3.0830 O         1 <0>         0.0000
   1188 WAT       -38.9320  -70.1660   -2.8330 O         1 <0>         0.0000
   1189 WAT       -38.9320  -70.1660   -2.5830 O         1 <0>         0.0000
   1190 WAT       -38.9320  -70.1660   -2.3330 O         1 <0>         0.0000
   1191 WAT       -38.9320  -70.1660   -2.0830 O         1 <0>         0.0000
   1192 WAT       -38.9320  -70.1660   -1.8330 O         1 <0>         0.0000
   1193 WAT       -38.9320  -70.1660   -1.5830 O         1 <0>         0.0000
   1194 WAT       -38.9320  -70.1660   -1.3330 O         1 <0>         0.0000
   1195 WAT       -38.9320  -70.1660   -1.0830 O         1 <0>         0.0000
   1196 WAT       -38.9320  -70.1660   -0.8330 O         1 <0>         0.0000
   1197 WAT       -38.9320  -70.1660   -0.5830 O         1 <0>         0.0000
   1198 WAT       -38.9320  -70.1660   -0.3330 O         1 <0>         0.0000
   1199 WAT       -38.9320  -70.1660   -0.0830 O         1 <0>         0.0000
   1200 WAT       -38.9320  -69.9160   -9.8330 O         1 <0>         0.0000
   1201 WAT       -38.9320  -69.9160   -9.5830 O         1 <0>         0.0000
   1202 WAT       -38.9320  -69.9160   -9.3330 O         1 <0>         0.0000
   1203 WAT       -38.9320  -69.9160   -9.0830 O         1 <0>         0.0000
   1204 WAT       -38.9320  -69.9160   -8.8330 O         1 <0>         0.0000
   1205 WAT       -38.9320  -69.9160   -8.5830 O         1 <0>         0.0000
   1206 WAT       -38.9320  -69.9160   -8.3330 O         1 <0>         0.0000
   1207 WAT       -38.9320  -69.9160   -8.0830 O         1 <0>         0.0000
   1208 WAT       -38.9320  -69.9160   -7.8330 O         1 <0>         0.0000
   1209 WAT       -38.9320  -69.9160   -7.5830 O         1 <0>         0.0000
   1210 WAT       -38.9320  -69.9160   -7.3330 O         1 <0>         0.0000
   1211 WAT       -38.9320  -69.9160   -7.0830 O         1 <0>         0.0000
   1212 WAT       -38.9320  -69.9160   -6.8330 O         1 <0>         0.0000
   1213 WAT       -38.9320  -69.9160   -6.5830 O         1 <0>         0.0000
   1214 WAT       -38.9320  -69.9160   -6.3330 O         1 <0>         0.0000
   1215 WAT       -38.9320  -69.9160   -6.0830 O         1 <0>         0.0000
   1216 WAT       -38.9320  -69.9160   -5.8330 O         1 <0>         0.0000
   1217 WAT       -38.9320  -69.9160   -5.5830 O         1 <0>         0.0000
   1218 WAT       -38.9320  -69.9160   -5.3330 O         1 <0>         0.0000
   1219 WAT       -38.9320  -69.9160   -5.0830 O         1 <0>         0.0000
   1220 WAT       -38.9320  -69.9160   -4.8330 O         1 <0>         0.0000
   1221 WAT       -38.9320  -69.9160   -4.5830 O         1 <0>         0.0000
   1222 WAT       -38.9320  -69.9160   -4.3330 O         1 <0>         0.0000
   1223 WAT       -38.9320  -69.9160   -4.0830 O         1 <0>         0.0000
   1224 WAT       -38.9320  -69.9160   -3.8330 O         1 <0>         0.0000
   1225 WAT       -38.9320  -69.9160   -3.5830 O         1 <0>         0.0000
   1226 WAT       -38.9320  -69.9160   -3.3330 O         1 <0>         0.0000
   1227 WAT       -38.9320  -69.9160   -3.0830 O         1 <0>         0.0000
   1228 WAT       -38.9320  -69.9160   -2.8330 O         1 <0>         0.0000
   1229 WAT       -38.9320  -69.9160   -2.5830 O         1 <0>         0.0000
   1230 WAT       -38.9320  -69.9160   -2.3330 O         1 <0>         0.0000
   1231 WAT       -38.9320  -69.9160   -2.0830 O         1 <0>         0.0000
   1232 WAT       -38.9320  -69.9160   -1.8330 O         1 <0>         0.0000
   1233 WAT       -38.9320  -69.9160   -1.5830 O         1 <0>         0.0000
   1234 WAT       -38.9320  -69.9160   -1.3330 O         1 <0>         0.0000
   1235 WAT       -38.9320  -69.9160   -1.0830 O         1 <0>         0.0000
   1236 WAT       -38.9320  -69.9160   -0.8330 O         1 <0>         0.0000
   1237 WAT       -38.9320  -69.9160   -0.5830 O         1 <0>         0.0000
   1238 WAT       -38.9320  -69.9160   -0.3330 O         1 <0>         0.0000
   1239 WAT       -38.9320  -69.9160   -0.0830 O         1 <0>         0.0000
   1240 WAT       -38.9320  -69.6660   -9.8330 O         1 <0>         0.0000
   1241 WAT       -38.9320  -69.6660   -9.5830 O         1 <0>         0.0000
   1242 WAT       -38.9320  -69.6660   -9.3330 O         1 <0>         0.0000
   1243 WAT       -38.9320  -69.6660   -9.0830 O         1 <0>         0.0000
   1244 WAT       -38.9320  -69.6660   -8.8330 O         1 <0>         0.0000
   1245 WAT       -38.9320  -69.6660   -8.5830 O         1 <0>         0.0000
   1246 WAT       -38.9320  -69.6660   -8.3330 O         1 <0>         0.0000
   1247 WAT       -38.9320  -69.6660   -8.0830 O         1 <0>         0.0000
   1248 WAT       -38.9320  -69.6660   -7.8330 O         1 <0>         0.0000
   1249 WAT       -38.9320  -69.6660   -7.5830 O         1 <0>         0.0000
   1250 WAT       -38.9320  -69.6660   -7.3330 O         1 <0>         0.0000
   1251 WAT       -38.9320  -69.6660   -7.0830 O         1 <0>         0.0000
   1252 WAT       -38.9320  -69.6660   -6.8330 O         1 <0>         0.0000
   1253 WAT       -38.9320  -69.6660   -6.5830 O         1 <0>         0.0000
   1254 WAT       -38.9320  -69.6660   -6.3330 O         1 <0>         0.0000
   1255 WAT       -38.9320  -69.6660   -6.0830 O         1 <0>         0.0000
   1256 WAT       -38.9320  -69.6660   -5.8330 O         1 <0>         0.0000
   1257 WAT       -38.9320  -69.6660   -5.5830 O         1 <0>         0.0000
   1258 WAT       -38.9320  -69.6660   -5.3330 O         1 <0>         0.0000
   1259 WAT       -38.9320  -69.6660   -5.0830 O         1 <0>         0.0000
   1260 WAT       -38.9320  -69.6660   -4.8330 O         1 <0>         0.0000
   1261 WAT       -38.9320  -69.6660   -4.5830 O         1 <0>         0.0000
   1262 WAT       -38.9320  -69.6660   -4.3330 O         1 <0>         0.0000
   1263 WAT       -38.9320  -69.6660   -4.0830 O         1 <0>         0.0000
   1264 WAT       -38.9320  -69.6660   -3.8330 O         1 <0>         0.0000
   1265 WAT       -38.9320  -69.6660   -3.5830 O         1 <0>         0.0000
   1266 WAT       -38.9320  -69.6660   -3.3330 O         1 <0>         0.0000
   1267 WAT       -38.9320  -69.6660   -3.0830 O         1 <0>         0.0000
   1268 WAT       -38.9320  -69.6660   -2.8330 O         1 <0>         0.0000
   1269 WAT       -38.9320  -69.6660   -2.5830 O         1 <0>         0.0000
   1270 WAT       -38.9320  -69.6660   -2.3330 O         1 <0>         0.0000
   1271 WAT       -38.9320  -69.6660   -2.0830 O         1 <0>         0.0000
   1272 WAT       -38.9320  -69.6660   -1.8330 O         1 <0>         0.0000
   1273 WAT       -38.9320  -69.6660   -1.5830 O         1 <0>         0.0000
   1274 WAT       -38.9320  -69.6660   -1.3330 O         1 <0>         0.0000
   1275 WAT       -38.9320  -69.6660   -1.0830 O         1 <0>         0.0000
   1276 WAT       -38.9320  -69.6660   -0.8330 O         1 <0>         0.0000
   1277 WAT       -38.9320  -69.6660   -0.5830 O         1 <0>         0.0000
   1278 WAT       -38.9320  -69.6660   -0.3330 O         1 <0>         0.0000
   1279 WAT       -38.9320  -69.6660   -0.0830 O         1 <0>         0.0000
   1280 WAT       -38.9320  -69.4160   -9.8330 O         1 <0>         0.0000
   1281 WAT       -38.9320  -69.4160   -9.5830 O         1 <0>         0.0000
   1282 WAT       -38.9320  -69.4160   -9.3330 O         1 <0>         0.0000
   1283 WAT       -38.9320  -69.4160   -9.0830 O         1 <0>         0.0000
   1284 WAT       -38.9320  -69.4160   -8.8330 O         1 <0>         0.0000
   1285 WAT       -38.9320  -69.4160   -8.5830 O         1 <0>         0.0000
   1286 WAT       -38.9320  -69.4160   -8.3330 O         1 <0>         0.0000
   1287 WAT       -38.9320  -69.4160   -8.0830 O         1 <0>         0.0000
   1288 WAT       -38.9320  -69.4160   -7.8330 O         1 <0>         0.0000
   1289 WAT       -38.9320  -69.4160   -7.5830 O         1 <0>         0.0000
   1290 WAT       -38.9320  -69.4160   -7.3330 O         1 <0>         0.0000
   1291 WAT       -38.9320  -69.4160   -7.0830 O         1 <0>         0.0000
   1292 WAT       -38.9320  -69.4160   -6.8330 O         1 <0>         0.0000
   1293 WAT       -38.9320  -69.4160   -6.5830 O         1 <0>         0.0000
   1294 WAT       -38.9320  -69.4160   -6.3330 O         1 <0>         0.0000
   1295 WAT       -38.9320  -69.4160   -6.0830 O         1 <0>         0.0000
   1296 WAT       -38.9320  -69.4160   -5.8330 O         1 <0>         0.0000
   1297 WAT       -38.9320  -69.4160   -5.5830 O         1 <0>         0.0000
   1298 WAT       -38.9320  -69.4160   -5.3330 O         1 <0>         0.0000
   1299 WAT       -38.9320  -69.4160   -5.0830 O         1 <0>         0.0000
   1300 WAT       -38.9320  -69.4160   -4.8330 O         1 <0>         0.0000
   1301 WAT       -38.9320  -69.4160   -4.5830 O         1 <0>         0.0000
   1302 WAT       -38.9320  -69.4160   -4.3330 O         1 <0>         0.0000
   1303 WAT       -38.9320  -69.4160   -4.0830 O         1 <0>         0.0000
   1304 WAT       -38.9320  -69.4160   -3.8330 O         1 <0>         0.0000
   1305 WAT       -38.9320  -69.4160   -3.5830 O         1 <0>         0.0000
   1306 WAT       -38.9320  -69.4160   -3.3330 O         1 <0>         0.0000
   1307 WAT       -38.9320  -69.4160   -3.0830 O         1 <0>         0.0000
   1308 WAT       -38.9320  -69.4160   -2.8330 O         1 <0>         0.0000
   1309 WAT       -38.9320  -69.4160   -2.5830 O         1 <0>         0.0000
   1310 WAT       -38.9320  -69.4160   -2.3330 O         1 <0>         0.0000
   1311 WAT       -38.9320  -69.4160   -2.0830 O         1 <0>         0.0000
   1312 WAT       -38.9320  -69.4160   -1.8330 O         1 <0>         0.0000
   1313 WAT       -38.9320  -69.4160   -1.5830 O         1 <0>         0.0000
   1314 WAT       -38.9320  -69.4160   -1.3330 O         1 <0>         0.0000
   1315 WAT       -38.9320  -69.4160   -1.0830 O         1 <0>         0.0000
   1316 WAT       -38.9320  -69.4160   -0.8330 O         1 <0>         0.0000
   1317 WAT       -38.9320  -69.4160   -0.5830 O         1 <0>         0.0000
   1318 WAT       -38.9320  -69.4160   -0.3330 O         1 <0>         0.0000
   1319 WAT       -38.9320  -69.4160   -0.0830 O         1 <0>         0.0000
   1320 WAT       -38.9320  -69.1660   -9.8330 O         1 <0>         0.0000
   1321 WAT       -38.9320  -69.1660   -9.5830 O         1 <0>         0.0000
   1322 WAT       -38.9320  -69.1660   -9.3330 O         1 <0>         0.0000
   1323 WAT       -38.9320  -69.1660   -9.0830 O         1 <0>         0.0000
   1324 WAT       -38.9320  -69.1660   -8.8330 O         1 <0>         0.0000
   1325 WAT       -38.9320  -69.1660   -8.5830 O         1 <0>         0.0000
   1326 WAT       -38.9320  -69.1660   -8.3330 O         1 <0>         0.0000
   1327 WAT       -38.9320  -69.1660   -8.0830 O         1 <0>         0.0000
   1328 WAT       -38.9320  -69.1660   -7.8330 O         1 <0>         0.0000
   1329 WAT       -38.9320  -69.1660   -7.5830 O         1 <0>         0.0000
   1330 WAT       -38.9320  -69.1660   -7.3330 O         1 <0>         0.0000
   1331 WAT       -38.9320  -69.1660   -7.0830 O         1 <0>         0.0000
   1332 WAT       -38.9320  -69.1660   -6.8330 O         1 <0>         0.0000
   1333 WAT       -38.9320  -69.1660   -6.5830 O         1 <0>         0.0000
   1334 WAT       -38.9320  -69.1660   -6.3330 O         1 <0>         0.0000
   1335 WAT       -38.9320  -69.1660   -6.0830 O         1 <0>         0.0000
   1336 WAT       -38.9320  -69.1660   -5.8330 O         1 <0>         0.0000
   1337 WAT       -38.9320  -69.1660   -5.5830 O         1 <0>         0.0000
   1338 WAT       -38.9320  -69.1660   -5.3330 O         1 <0>         0.0000
   1339 WAT       -38.9320  -69.1660   -5.0830 O         1 <0>         0.0000
   1340 WAT       -38.9320  -69.1660   -4.8330 O         1 <0>         0.0000
   1341 WAT       -38.9320  -69.1660   -4.5830 O         1 <0>         0.0000
   1342 WAT       -38.9320  -69.1660   -4.3330 O         1 <0>         0.0000
   1343 WAT       -38.9320  -69.1660   -4.0830 O         1 <0>         0.0000
   1344 WAT       -38.9320  -69.1660   -3.8330 O         1 <0>         0.0000
   1345 WAT       -38.9320  -69.1660   -3.5830 O         1 <0>         0.0000
   1346 WAT       -38.9320  -69.1660   -3.3330 O         1 <0>         0.0000
   1347 WAT       -38.9320  -69.1660   -3.0830 O         1 <0>         0.0000
   1348 WAT       -38.9320  -69.1660   -2.8330 O         1 <0>         0.0000
   1349 WAT       -38.9320  -69.1660   -2.5830 O         1 <0>         0.0000
   1350 WAT       -38.9320  -69.1660   -2.3330 O         1 <0>         0.0000
   1351 WAT       -38.9320  -69.1660   -2.0830 O         1 <0>         0.0000
   1352 WAT       -38.9320  -69.1660   -1.8330 O         1 <0>         0.0000
   1353 WAT       -38.9320  -69.1660   -1.5830 O         1 <0>         0.0000
   1354 WAT       -38.9320  -69.1660   -1.3330 O         1 <0>         0.0000
   1355 WAT       -38.9320  -69.1660   -1.0830 O         1 <0>         0.0000
   1356 WAT       -38.9320  -69.1660   -0.8330 O         1 <0>         0.0000
   1357 WAT       -38.9320  -69.1660   -0.5830 O         1 <0>         0.0000
   1358 WAT       -38.9320  -69.1660   -0.3330 O         1 <0>         0.0000
   1359 WAT       -38.9320  -69.1660   -0.0830 O         1 <0>         0.0000
   1360 WAT       -38.9320  -68.9160   -9.8330 O         1 <0>         0.0000
   1361 WAT       -38.9320  -68.9160   -9.5830 O         1 <0>         0.0000
   1362 WAT       -38.9320  -68.9160   -9.3330 O         1 <0>         0.0000
   1363 WAT       -38.9320  -68.9160   -9.0830 O         1 <0>         0.0000
   1364 WAT       -38.9320  -68.9160   -8.8330 O         1 <0>         0.0000
   1365 WAT       -38.9320  -68.9160   -8.5830 O         1 <0>         0.0000
   1366 WAT       -38.9320  -68.9160   -8.3330 O         1 <0>         0.0000
   1367 WAT       -38.9320  -68.9160   -8.0830 O         1 <0>         0.0000
   1368 WAT       -38.9320  -68.9160   -7.8330 O         1 <0>         0.0000
   1369 WAT       -38.9320  -68.9160   -7.5830 O         1 <0>         0.0000
   1370 WAT       -38.9320  -68.9160   -7.3330 O         1 <0>         0.0000
   1371 WAT       -38.9320  -68.9160   -7.0830 O         1 <0>         0.0000
   1372 WAT       -38.9320  -68.9160   -6.8330 O         1 <0>         0.0000
   1373 WAT       -38.9320  -68.9160   -6.5830 O         1 <0>         0.0000
   1374 WAT       -38.9320  -68.9160   -6.3330 O         1 <0>         0.0000
   1375 WAT       -38.9320  -68.9160   -6.0830 O         1 <0>         0.0000
   1376 WAT       -38.9320  -68.9160   -5.8330 O         1 <0>         0.0000
   1377 WAT       -38.9320  -68.9160   -5.5830 O         1 <0>         0.0000
   1378 WAT       -38.9320  -68.9160   -5.3330 O         1 <0>         0.0000
   1379 WAT       -38.9320  -68.9160   -5.0830 O         1 <0>         0.0000
   1380 WAT       -38.9320  -68.9160   -4.8330 O         1 <0>         0.0000
   1381 WAT       -38.9320  -68.9160   -4.5830 O         1 <0>         0.0000
   1382 WAT       -38.9320  -68.9160   -4.3330 O         1 <0>         0.0000
   1383 WAT       -38.9320  -68.9160   -4.0830 O         1 <0>         0.0000
   1384 WAT       -38.9320  -68.9160   -3.8330 O         1 <0>         0.0000
   1385 WAT       -38.9320  -68.9160   -3.5830 O         1 <0>         0.0000
   1386 WAT       -38.9320  -68.9160   -3.3330 O         1 <0>         0.0000
   1387 WAT       -38.9320  -68.9160   -3.0830 O         1 <0>         0.0000
   1388 WAT       -38.9320  -68.9160   -2.8330 O         1 <0>         0.0000
   1389 WAT       -38.9320  -68.9160   -2.5830 O         1 <0>         0.0000
   1390 WAT       -38.9320  -68.9160   -2.3330 O         1 <0>         0.0000
   1391 WAT       -38.9320  -68.9160   -2.0830 O         1 <0>         0.0000
   1392 WAT       -38.9320  -68.9160   -1.8330 O         1 <0>         0.0000
   1393 WAT       -38.9320  -68.9160   -1.5830 O         1 <0>         0.0000
   1394 WAT       -38.9320  -68.9160   -1.3330 O         1 <0>         0.0000
   1395 WAT       -38.9320  -68.9160   -1.0830 O         1 <0>         0.0000
   1396 WAT       -38.9320  -68.9160   -0.8330 O         1 <0>         0.0000
   1397 WAT       -38.9320  -68.9160   -0.5830 O         1 <0>         0.0000
   1398 WAT       -38.9320  -68.9160   -0.3330 O         1 <0>         0.0000
   1399 WAT       -38.9320  -68.9160   -0.0830 O         1 <0>         0.0000
   1400 WAT       -38.6820  -77.4160   -9.8330 O         1 <0>         0.0000
   1401 WAT       -38.6820  -77.4160   -9.5830 O         1 <0>         0.0000
   1402 WAT       -38.6820  -77.4160   -9.3330 O         1 <0>         0.0000
   1403 WAT       -38.6820  -77.4160   -9.0830 O         1 <0>         0.0000
   1404 WAT       -38.6820  -77.4160   -8.8330 O         1 <0>         0.0000
   1405 WAT       -38.6820  -77.4160   -8.5830 O         1 <0>         0.0000
   1406 WAT       -38.6820  -77.4160   -8.3330 O         1 <0>         0.0000
   1407 WAT       -38.6820  -77.4160   -8.0830 O         1 <0>         0.0000
   1408 WAT       -38.6820  -77.4160   -7.8330 O         1 <0>         0.0000
   1409 WAT       -38.6820  -77.4160   -7.5830 O         1 <0>         0.0000
   1410 WAT       -38.6820  -77.4160   -7.3330 O         1 <0>         0.0000
   1411 WAT       -38.6820  -77.4160   -7.0830 O         1 <0>         0.0000
   1412 WAT       -38.6820  -77.4160   -6.8330 O         1 <0>         0.0000
   1413 WAT       -38.6820  -77.4160   -6.5830 O         1 <0>         0.0000
   1414 WAT       -38.6820  -77.4160   -6.3330 O         1 <0>         0.0000
   1415 WAT       -38.6820  -77.4160   -6.0830 O         1 <0>         0.0000
   1416 WAT       -38.6820  -77.4160   -5.8330 O         1 <0>         0.0000
   1417 WAT       -38.6820  -77.4160   -5.5830 O         1 <0>         0.0000
   1418 WAT       -38.6820  -77.4160   -5.3330 O         1 <0>         0.0000
   1419 WAT       -38.6820  -77.4160   -5.0830 O         1 <0>         0.0000
   1420 WAT       -38.6820  -77.4160   -4.8330 O         1 <0>         0.0000
   1421 WAT       -38.6820  -77.4160   -4.5830 O         1 <0>         0.0000
   1422 WAT       -38.6820  -77.4160   -4.3330 O         1 <0>         0.0000
   1423 WAT       -38.6820  -77.4160   -4.0830 O         1 <0>         0.0000
   1424 WAT       -38.6820  -77.4160   -3.8330 O         1 <0>         0.0000
   1425 WAT       -38.6820  -77.4160   -3.5830 O         1 <0>         0.0000
   1426 WAT       -38.6820  -77.4160   -3.3330 O         1 <0>         0.0000
   1427 WAT       -38.6820  -77.4160   -3.0830 O         1 <0>         0.0000
   1428 WAT       -38.6820  -77.4160   -2.8330 O         1 <0>         0.0000
   1429 WAT       -38.6820  -77.4160   -2.5830 O         1 <0>         0.0000
   1430 WAT       -38.6820  -77.4160   -2.3330 O         1 <0>         0.0000
   1431 WAT       -38.6820  -77.4160   -2.0830 O         1 <0>         0.0000
   1432 WAT       -38.6820  -77.4160   -1.8330 O         1 <0>         0.0000
   1433 WAT       -38.6820  -77.4160   -1.5830 O         1 <0>         0.0000
   1434 WAT       -38.6820  -77.4160   -1.3330 O         1 <0>         0.0000
   1435 WAT       -38.6820  -77.4160   -1.0830 O         1 <0>         0.0000
   1436 WAT       -38.6820  -77.4160   -0.8330 O         1 <0>         0.0000
   1437 WAT       -38.6820  -77.4160   -0.5830 O         1 <0>         0.0000
   1438 WAT       -38.6820  -77.4160   -0.3330 O         1 <0>         0.0000
   1439 WAT       -38.6820  -77.4160   -0.0830 O         1 <0>         0.0000
   1440 WAT       -38.6820  -77.1660   -9.8330 O         1 <0>         0.0000
   1441 WAT       -38.6820  -77.1660   -9.5830 O         1 <0>         0.0000
   1442 WAT       -38.6820  -77.1660   -9.3330 O         1 <0>         0.0000
   1443 WAT       -38.6820  -77.1660   -9.0830 O         1 <0>         0.0000
   1444 WAT       -38.6820  -77.1660   -8.8330 O         1 <0>         0.0000
   1445 WAT       -38.6820  -77.1660   -8.5830 O         1 <0>         0.0000
   1446 WAT       -38.6820  -77.1660   -8.3330 O         1 <0>         0.0000
   1447 WAT       -38.6820  -77.1660   -8.0830 O         1 <0>         0.0000
   1448 WAT       -38.6820  -77.1660   -7.8330 O         1 <0>         0.0000
   1449 WAT       -38.6820  -77.1660   -7.5830 O         1 <0>         0.0000
   1450 WAT       -38.6820  -77.1660   -7.3330 O         1 <0>         0.0000
   1451 WAT       -38.6820  -77.1660   -7.0830 O         1 <0>         0.0000
   1452 WAT       -38.6820  -77.1660   -6.8330 O         1 <0>         0.0000
   1453 WAT       -38.6820  -77.1660   -6.5830 O         1 <0>         0.0000
   1454 WAT       -38.6820  -77.1660   -6.3330 O         1 <0>         0.0000
   1455 WAT       -38.6820  -77.1660   -6.0830 O         1 <0>         0.0000
   1456 WAT       -38.6820  -77.1660   -5.8330 O         1 <0>         0.0000
   1457 WAT       -38.6820  -77.1660   -5.5830 O         1 <0>         0.0000
   1458 WAT       -38.6820  -77.1660   -5.3330 O         1 <0>         0.0000
   1459 WAT       -38.6820  -77.1660   -5.0830 O         1 <0>         0.0000
   1460 WAT       -38.6820  -77.1660   -4.8330 O         1 <0>         0.0000
   1461 WAT       -38.6820  -77.1660   -4.5830 O         1 <0>         0.0000
   1462 WAT       -38.6820  -77.1660   -4.3330 O         1 <0>         0.0000
   1463 WAT       -38.6820  -77.1660   -4.0830 O         1 <0>         0.0000
   1464 WAT       -38.6820  -77.1660   -3.8330 O         1 <0>         0.0000
   1465 WAT       -38.6820  -77.1660   -3.5830 O         1 <0>         0.0000
   1466 WAT       -38.6820  -77.1660   -3.3330 O         1 <0>         0.0000
   1467 WAT       -38.6820  -77.1660   -3.0830 O         1 <0>         0.0000
   1468 WAT       -38.6820  -77.1660   -2.8330 O         1 <0>         0.0000
   1469 WAT       -38.6820  -77.1660   -2.5830 O         1 <0>         0.0000
   1470 WAT       -38.6820  -77.1660   -2.3330 O         1 <0>         0.0000
   1471 WAT       -38.6820  -77.1660   -2.0830 O         1 <0>         0.0000
   1472 WAT       -38.6820  -77.1660   -1.8330 O         1 <0>         0.0000
   1473 WAT       -38.6820  -77.1660   -1.5830 O         1 <0>         0.0000
   1474 WAT       -38.6820  -77.1660   -1.3330 O         1 <0>         0.0000
   1475 WAT       -38.6820  -77.1660   -1.0830 O         1 <0>         0.0000
   1476 WAT       -38.6820  -77.1660   -0.8330 O         1 <0>         0.0000
   1477 WAT       -38.6820  -77.1660   -0.5830 O         1 <0>         0.0000
   1478 WAT       -38.6820  -77.1660   -0.3330 O         1 <0>         0.0000
   1479 WAT       -38.6820  -77.1660   -0.0830 O         1 <0>         0.0000
   1480 WAT       -38.6820  -76.9160   -9.8330 O         1 <0>         0.0000
   1481 WAT       -38.6820  -76.9160   -9.5830 O         1 <0>         0.0000
   1482 WAT       -38.6820  -76.9160   -9.3330 O         1 <0>         0.0000
   1483 WAT       -38.6820  -76.9160   -9.0830 O         1 <0>         0.0000
   1484 WAT       -38.6820  -76.9160   -8.8330 O         1 <0>         0.0000
   1485 WAT       -38.6820  -76.9160   -8.5830 O         1 <0>         0.0000
   1486 WAT       -38.6820  -76.9160   -8.3330 O         1 <0>         0.0000
   1487 WAT       -38.6820  -76.9160   -8.0830 O         1 <0>         0.0000
   1488 WAT       -38.6820  -76.9160   -7.8330 O         1 <0>         0.0000
   1489 WAT       -38.6820  -76.9160   -7.5830 O         1 <0>         0.0000
   1490 WAT       -38.6820  -76.9160   -7.3330 O         1 <0>         0.0000
   1491 WAT       -38.6820  -76.9160   -7.0830 O         1 <0>         0.0000
   1492 WAT       -38.6820  -76.9160   -6.8330 O         1 <0>         0.0000
   1493 WAT       -38.6820  -76.9160   -6.5830 O         1 <0>         0.0000
   1494 WAT       -38.6820  -76.9160   -6.3330 O         1 <0>         0.0000
   1495 WAT       -38.6820  -76.9160   -6.0830 O         1 <0>         0.0000
   1496 WAT       -38.6820  -76.9160   -5.8330 O         1 <0>         0.0000
   1497 WAT       -38.6820  -76.9160   -5.5830 O         1 <0>         0.0000
   1498 WAT       -38.6820  -76.9160   -5.3330 O         1 <0>         0.0000
   1499 WAT       -38.6820  -76.9160   -5.0830 O         1 <0>         0.0000
   1500 WAT       -38.6820  -76.9160   -4.8330 O         1 <0>         0.0000
   1501 WAT       -38.6820  -76.9160   -4.5830 O         1 <0>         0.0000
   1502 WAT       -38.6820  -76.9160   -4.3330 O         1 <0>         0.0000
   1503 WAT       -38.6820  -76.9160   -4.0830 O         1 <0>         0.0000
   1504 WAT       -38.6820  -76.9160   -3.8330 O         1 <0>         0.0000
   1505 WAT       -38.6820  -76.9160   -3.5830 O         1 <0>         0.0000
   1506 WAT       -38.6820  -76.9160   -3.3330 O         1 <0>         0.0000
   1507 WAT       -38.6820  -76.9160   -3.0830 O         1 <0>         0.0000
   1508 WAT       -38.6820  -76.9160   -2.8330 O         1 <0>         0.0000
   1509 WAT       -38.6820  -76.9160   -2.5830 O         1 <0>         0.0000
   1510 WAT       -38.6820  -76.9160   -2.3330 O         1 <0>         0.0000
   1511 WAT       -38.6820  -76.9160   -2.0830 O         1 <0>         0.0000
   1512 WAT       -38.6820  -76.9160   -1.8330 O         1 <0>         0.0000
   1513 WAT       -38.6820  -76.9160   -1.5830 O         1 <0>         0.0000
   1514 WAT       -38.6820  -76.9160   -1.3330 O         1 <0>         0.0000
   1515 WAT       -38.6820  -76.9160   -1.0830 O         1 <0>         0.0000
   1516 WAT       -38.6820  -76.9160   -0.8330 O         1 <0>         0.0000
   1517 WAT       -38.6820  -76.9160   -0.5830 O         1 <0>         0.0000
   1518 WAT       -38.6820  -76.9160   -0.3330 O         1 <0>         0.0000
   1519 WAT       -38.6820  -76.9160   -0.0830 O         1 <0>         0.0000
   1520 WAT       -38.6820  -76.6660   -9.8330 O         1 <0>         0.0000
   1521 WAT       -38.6820  -76.6660   -9.5830 O         1 <0>         0.0000
   1522 WAT       -38.6820  -76.6660   -9.3330 O         1 <0>         0.0000
   1523 WAT       -38.6820  -76.6660   -9.0830 O         1 <0>         0.0000
   1524 WAT       -38.6820  -76.6660   -8.8330 O         1 <0>         0.0000
   1525 WAT       -38.6820  -76.6660   -8.5830 O         1 <0>         0.0000
   1526 WAT       -38.6820  -76.6660   -8.3330 O         1 <0>         0.0000
   1527 WAT       -38.6820  -76.6660   -8.0830 O         1 <0>         0.0000
   1528 WAT       -38.6820  -76.6660   -7.8330 O         1 <0>         0.0000
   1529 WAT       -38.6820  -76.6660   -7.5830 O         1 <0>         0.0000
   1530 WAT       -38.6820  -76.6660   -7.3330 O         1 <0>         0.0000
   1531 WAT       -38.6820  -76.6660   -7.0830 O         1 <0>         0.0000
   1532 WAT       -38.6820  -76.6660   -6.8330 O         1 <0>         0.0000
   1533 WAT       -38.6820  -76.6660   -6.5830 O         1 <0>         0.0000
   1534 WAT       -38.6820  -76.6660   -6.3330 O         1 <0>         0.0000
   1535 WAT       -38.6820  -76.6660   -6.0830 O         1 <0>         0.0000
   1536 WAT       -38.6820  -76.6660   -5.8330 O         1 <0>         0.0000
   1537 WAT       -38.6820  -76.6660   -5.5830 O         1 <0>         0.0000
   1538 WAT       -38.6820  -76.6660   -5.3330 O         1 <0>         0.0000
   1539 WAT       -38.6820  -76.6660   -5.0830 O         1 <0>         0.0000
   1540 WAT       -38.6820  -76.6660   -4.8330 O         1 <0>         0.0000
   1541 WAT       -38.6820  -76.6660   -4.5830 O         1 <0>         0.0000
   1542 WAT       -38.6820  -76.6660   -4.3330 O         1 <0>         0.0000
   1543 WAT       -38.6820  -76.6660   -4.0830 O         1 <0>         0.0000
   1544 WAT       -38.6820  -76.6660   -3.8330 O         1 <0>         0.0000
   1545 WAT       -38.6820  -76.6660   -3.5830 O         1 <0>         0.0000
   1546 WAT       -38.6820  -76.6660   -3.3330 O         1 <0>         0.0000
   1547 WAT       -38.6820  -76.6660   -3.0830 O         1 <0>         0.0000
   1548 WAT       -38.6820  -76.6660   -2.8330 O         1 <0>         0.0000
   1549 WAT       -38.6820  -76.6660   -2.5830 O         1 <0>         0.0000
   1550 WAT       -38.6820  -76.6660   -2.3330 O         1 <0>         0.0000
   1551 WAT       -38.6820  -76.6660   -2.0830 O         1 <0>         0.0000
   1552 WAT       -38.6820  -76.6660   -1.8330 O         1 <0>         0.0000
   1553 WAT       -38.6820  -76.6660   -1.5830 O         1 <0>         0.0000
   1554 WAT       -38.6820  -76.6660   -1.3330 O         1 <0>         0.0000
   1555 WAT       -38.6820  -76.6660   -1.0830 O         1 <0>         0.0000
   1556 WAT       -38.6820  -76.6660   -0.8330 O         1 <0>         0.0000
   1557 WAT       -38.6820  -76.6660   -0.5830 O         1 <0>         0.0000
   1558 WAT       -38.6820  -76.6660   -0.3330 O         1 <0>         0.0000
   1559 WAT       -38.6820  -76.6660   -0.0830 O         1 <0>         0.0000
   1560 WAT       -38.6820  -76.4160   -9.8330 O         1 <0>         0.0000
   1561 WAT       -38.6820  -76.4160   -9.5830 O         1 <0>         0.0000
   1562 WAT       -38.6820  -76.4160   -9.3330 O         1 <0>         0.0000
   1563 WAT       -38.6820  -76.4160   -9.0830 O         1 <0>         0.0000
   1564 WAT       -38.6820  -76.4160   -8.8330 O         1 <0>         0.0000
   1565 WAT       -38.6820  -76.4160   -8.5830 O         1 <0>         0.0000
   1566 WAT       -38.6820  -76.4160   -8.3330 O         1 <0>         0.0000
   1567 WAT       -38.6820  -76.4160   -8.0830 O         1 <0>         0.0000
   1568 WAT       -38.6820  -76.4160   -7.8330 O         1 <0>         0.0000
   1569 WAT       -38.6820  -76.4160   -7.5830 O         1 <0>         0.0000
   1570 WAT       -38.6820  -76.4160   -7.3330 O         1 <0>         0.0000
   1571 WAT       -38.6820  -76.4160   -7.0830 O         1 <0>         0.0000
   1572 WAT       -38.6820  -76.4160   -6.8330 O         1 <0>         0.0000
   1573 WAT       -38.6820  -76.4160   -6.5830 O         1 <0>         0.0000
   1574 WAT       -38.6820  -76.4160   -6.3330 O         1 <0>         0.0000
   1575 WAT       -38.6820  -76.4160   -6.0830 O         1 <0>         0.0000
   1576 WAT       -38.6820  -76.4160   -5.8330 O         1 <0>         0.0000
   1577 WAT       -38.6820  -76.4160   -5.5830 O         1 <0>         0.0000
   1578 WAT       -38.6820  -76.4160   -5.3330 O         1 <0>         0.0000
   1579 WAT       -38.6820  -76.4160   -5.0830 O         1 <0>         0.0000
   1580 WAT       -38.6820  -76.4160   -4.8330 O         1 <0>         0.0000
   1581 WAT       -38.6820  -76.4160   -4.5830 O         1 <0>         0.0000
   1582 WAT       -38.6820  -76.4160   -4.3330 O         1 <0>         0.0000
   1583 WAT       -38.6820  -76.4160   -4.0830 O         1 <0>         0.0000
   1584 WAT       -38.6820  -76.4160   -3.8330 O         1 <0>         0.0000
   1585 WAT       -38.6820  -76.4160   -3.5830 O         1 <0>         0.0000
   1586 WAT       -38.6820  -76.4160   -3.3330 O         1 <0>         0.0000
   1587 WAT       -38.6820  -76.4160   -3.0830 O         1 <0>         0.0000
   1588 WAT       -38.6820  -76.4160   -2.8330 O         1 <0>         0.0000
   1589 WAT       -38.6820  -76.4160   -2.5830 O         1 <0>         0.0000
   1590 WAT       -38.6820  -76.4160   -2.3330 O         1 <0>         0.0000
   1591 WAT       -38.6820  -76.4160   -2.0830 O         1 <0>         0.0000
   1592 WAT       -38.6820  -76.4160   -1.8330 O         1 <0>         0.0000
   1593 WAT       -38.6820  -76.4160   -1.5830 O         1 <0>         0.0000
   1594 WAT       -38.6820  -76.4160   -1.3330 O         1 <0>         0.0000
   1595 WAT       -38.6820  -76.4160   -1.0830 O         1 <0>         0.0000
   1596 WAT       -38.6820  -76.4160   -0.8330 O         1 <0>         0.0000
   1597 WAT       -38.6820  -76.4160   -0.5830 O         1 <0>         0.0000
   1598 WAT       -38.6820  -76.4160   -0.3330 O         1 <0>         0.0000
   1599 WAT       -38.6820  -76.4160   -0.0830 O         1 <0>         0.0000
   1600 WAT       -38.6820  -76.1660   -9.8330 O         1 <0>         0.0000
   1601 WAT       -38.6820  -76.1660   -9.5830 O         1 <0>         0.0000
   1602 WAT       -38.6820  -76.1660   -9.3330 O         1 <0>         0.0000
   1603 WAT       -38.6820  -76.1660   -9.0830 O         1 <0>         0.0000
   1604 WAT       -38.6820  -76.1660   -8.8330 O         1 <0>         0.0000
   1605 WAT       -38.6820  -76.1660   -8.5830 O         1 <0>         0.0000
   1606 WAT       -38.6820  -76.1660   -8.3330 O         1 <0>         0.0000
   1607 WAT       -38.6820  -76.1660   -8.0830 O         1 <0>         0.0000
   1608 WAT       -38.6820  -76.1660   -7.8330 O         1 <0>         0.0000
   1609 WAT       -38.6820  -76.1660   -7.5830 O         1 <0>         0.0000
   1610 WAT       -38.6820  -76.1660   -7.3330 O         1 <0>         0.0000
   1611 WAT       -38.6820  -76.1660   -7.0830 O         1 <0>         0.0000
   1612 WAT       -38.6820  -76.1660   -6.8330 O         1 <0>         0.0000
   1613 WAT       -38.6820  -76.1660   -6.5830 O         1 <0>         0.0000
   1614 WAT       -38.6820  -76.1660   -6.3330 O         1 <0>         0.0000
   1615 WAT       -38.6820  -76.1660   -6.0830 O         1 <0>         0.0000
   1616 WAT       -38.6820  -76.1660   -5.8330 O         1 <0>         0.0000
   1617 WAT       -38.6820  -76.1660   -5.5830 O         1 <0>         0.0000
   1618 WAT       -38.6820  -76.1660   -5.3330 O         1 <0>         0.0000
   1619 WAT       -38.6820  -76.1660   -5.0830 O         1 <0>         0.0000
   1620 WAT       -38.6820  -76.1660   -4.8330 O         1 <0>         0.0000
   1621 WAT       -38.6820  -76.1660   -4.5830 O         1 <0>         0.0000
   1622 WAT       -38.6820  -76.1660   -4.3330 O         1 <0>         0.0000
   1623 WAT       -38.6820  -76.1660   -4.0830 O         1 <0>         0.0000
   1624 WAT       -38.6820  -76.1660   -3.8330 O         1 <0>         0.0000
   1625 WAT       -38.6820  -76.1660   -3.5830 O         1 <0>         0.0000
   1626 WAT       -38.6820  -76.1660   -3.3330 O         1 <0>         0.0000
   1627 WAT       -38.6820  -76.1660   -3.0830 O         1 <0>         0.0000
   1628 WAT       -38.6820  -76.1660   -2.8330 O         1 <0>         0.0000
   1629 WAT       -38.6820  -76.1660   -2.5830 O         1 <0>         0.0000
   1630 WAT       -38.6820  -76.1660   -2.3330 O         1 <0>         0.0000
   1631 WAT       -38.6820  -76.1660   -2.0830 O         1 <0>         0.0000
   1632 WAT       -38.6820  -76.1660   -1.8330 O         1 <0>         0.0000
   1633 WAT       -38.6820  -76.1660   -1.5830 O         1 <0>         0.0000
   1634 WAT       -38.6820  -76.1660   -1.3330 O         1 <0>         0.0000
   1635 WAT       -38.6820  -76.1660   -1.0830 O         1 <0>         0.0000
   1636 WAT       -38.6820  -76.1660   -0.8330 O         1 <0>         0.0000
   1637 WAT       -38.6820  -76.1660   -0.5830 O         1 <0>         0.0000
   1638 WAT       -38.6820  -76.1660   -0.3330 O         1 <0>         0.0000
   1639 WAT       -38.6820  -76.1660   -0.0830 O         1 <0>         0.0000
   1640 WAT       -38.6820  -75.9160   -9.8330 O         1 <0>         0.0000
   1641 WAT       -38.6820  -75.9160   -9.5830 O         1 <0>         0.0000
   1642 WAT       -38.6820  -75.9160   -9.3330 O         1 <0>         0.0000
   1643 WAT       -38.6820  -75.9160   -9.0830 O         1 <0>         0.0000
   1644 WAT       -38.6820  -75.9160   -8.8330 O         1 <0>         0.0000
   1645 WAT       -38.6820  -75.9160   -8.5830 O         1 <0>         0.0000
   1646 WAT       -38.6820  -75.9160   -8.3330 O         1 <0>         0.0000
   1647 WAT       -38.6820  -75.9160   -8.0830 O         1 <0>         0.0000
   1648 WAT       -38.6820  -75.9160   -7.8330 O         1 <0>         0.0000
   1649 WAT       -38.6820  -75.9160   -7.5830 O         1 <0>         0.0000
   1650 WAT       -38.6820  -75.9160   -7.3330 O         1 <0>         0.0000
   1651 WAT       -38.6820  -75.9160   -7.0830 O         1 <0>         0.0000
   1652 WAT       -38.6820  -75.9160   -6.8330 O         1 <0>         0.0000
   1653 WAT       -38.6820  -75.9160   -6.5830 O         1 <0>         0.0000
   1654 WAT       -38.6820  -75.9160   -6.3330 O         1 <0>         0.0000
   1655 WAT       -38.6820  -75.9160   -6.0830 O         1 <0>         0.0000
   1656 WAT       -38.6820  -75.9160   -5.8330 O         1 <0>         0.0000
   1657 WAT       -38.6820  -75.9160   -5.5830 O         1 <0>         0.0000
   1658 WAT       -38.6820  -75.9160   -5.3330 O         1 <0>         0.0000
   1659 WAT       -38.6820  -75.9160   -5.0830 O         1 <0>         0.0000
   1660 WAT       -38.6820  -75.9160   -4.8330 O         1 <0>         0.0000
   1661 WAT       -38.6820  -75.9160   -4.5830 O         1 <0>         0.0000
   1662 WAT       -38.6820  -75.9160   -4.3330 O         1 <0>         0.0000
   1663 WAT       -38.6820  -75.9160   -4.0830 O         1 <0>         0.0000
   1664 WAT       -38.6820  -75.9160   -3.8330 O         1 <0>         0.0000
   1665 WAT       -38.6820  -75.9160   -3.5830 O         1 <0>         0.0000
   1666 WAT       -38.6820  -75.9160   -3.3330 O         1 <0>         0.0000
   1667 WAT       -38.6820  -75.9160   -3.0830 O         1 <0>         0.0000
   1668 WAT       -38.6820  -75.9160   -2.8330 O         1 <0>         0.0000
   1669 WAT       -38.6820  -75.9160   -2.5830 O         1 <0>         0.0000
   1670 WAT       -38.6820  -75.9160   -2.3330 O         1 <0>         0.0000
   1671 WAT       -38.6820  -75.9160   -2.0830 O         1 <0>         0.0000
   1672 WAT       -38.6820  -75.9160   -1.8330 O         1 <0>         0.0000
   1673 WAT       -38.6820  -75.9160   -1.5830 O         1 <0>         0.0000
   1674 WAT       -38.6820  -75.9160   -1.3330 O         1 <0>         0.0000
   1675 WAT       -38.6820  -75.9160   -1.0830 O         1 <0>         0.0000
   1676 WAT       -38.6820  -75.9160   -0.8330 O         1 <0>         0.0000
   1677 WAT       -38.6820  -75.9160   -0.5830 O         1 <0>         0.0000
   1678 WAT       -38.6820  -75.9160   -0.3330 O         1 <0>         0.0000
   1679 WAT       -38.6820  -75.9160   -0.0830 O         1 <0>         0.0000
   1680 WAT       -38.6820  -75.6660   -9.8330 O         1 <0>         0.0000
   1681 WAT       -38.6820  -75.6660   -9.5830 O         1 <0>         0.0000
   1682 WAT       -38.6820  -75.6660   -9.3330 O         1 <0>         0.0000
   1683 WAT       -38.6820  -75.6660   -9.0830 O         1 <0>         0.0000
   1684 WAT       -38.6820  -75.6660   -8.8330 O         1 <0>         0.0000
   1685 WAT       -38.6820  -75.6660   -8.5830 O         1 <0>         0.0000
   1686 WAT       -38.6820  -75.6660   -8.3330 O         1 <0>         0.0000
   1687 WAT       -38.6820  -75.6660   -8.0830 O         1 <0>         0.0000
   1688 WAT       -38.6820  -75.6660   -7.8330 O         1 <0>         0.0000
   1689 WAT       -38.6820  -75.6660   -7.5830 O         1 <0>         0.0000
   1690 WAT       -38.6820  -75.6660   -7.3330 O         1 <0>         0.0000
   1691 WAT       -38.6820  -75.6660   -7.0830 O         1 <0>         0.0000
   1692 WAT       -38.6820  -75.6660   -6.8330 O         1 <0>         0.0000
   1693 WAT       -38.6820  -75.6660   -6.5830 O         1 <0>         0.0000
   1694 WAT       -38.6820  -75.6660   -6.3330 O         1 <0>         0.0000
   1695 WAT       -38.6820  -75.6660   -6.0830 O         1 <0>         0.0000
   1696 WAT       -38.6820  -75.6660   -5.8330 O         1 <0>         0.0000
   1697 WAT       -38.6820  -75.6660   -5.5830 O         1 <0>         0.0000
   1698 WAT       -38.6820  -75.6660   -5.3330 O         1 <0>         0.0000
   1699 WAT       -38.6820  -75.6660   -5.0830 O         1 <0>         0.0000
   1700 WAT       -38.6820  -75.6660   -4.8330 O         1 <0>         0.0000
   1701 WAT       -38.6820  -75.6660   -4.5830 O         1 <0>         0.0000
   1702 WAT       -38.6820  -75.6660   -4.3330 O         1 <0>         0.0000
   1703 WAT       -38.6820  -75.6660   -4.0830 O         1 <0>         0.0000
   1704 WAT       -38.6820  -75.6660   -3.8330 O         1 <0>         0.0000
   1705 WAT       -38.6820  -75.6660   -3.5830 O         1 <0>         0.0000
   1706 WAT       -38.6820  -75.6660   -3.3330 O         1 <0>         0.0000
   1707 WAT       -38.6820  -75.6660   -3.0830 O         1 <0>         0.0000
   1708 WAT       -38.6820  -75.6660   -2.8330 O         1 <0>         0.0000
   1709 WAT       -38.6820  -75.6660   -2.5830 O         1 <0>         0.0000
   1710 WAT       -38.6820  -75.6660   -2.3330 O         1 <0>         0.0000
   1711 WAT       -38.6820  -75.6660   -2.0830 O         1 <0>         0.0000
   1712 WAT       -38.6820  -75.6660   -1.8330 O         1 <0>         0.0000
   1713 WAT       -38.6820  -75.6660   -1.5830 O         1 <0>         0.0000
   1714 WAT       -38.6820  -75.6660   -1.3330 O         1 <0>         0.0000
   1715 WAT       -38.6820  -75.6660   -1.0830 O         1 <0>         0.0000
   1716 WAT       -38.6820  -75.6660   -0.8330 O         1 <0>         0.0000
   1717 WAT       -38.6820  -75.6660   -0.5830 O         1 <0>         0.0000
   1718 WAT       -38.6820  -75.6660   -0.3330 O         1 <0>         0.0000
   1719 WAT       -38.6820  -75.6660   -0.0830 O         1 <0>         0.0000
   1720 WAT       -38.6820  -75.4160   -9.8330 O         1 <0>         0.0000
   1721 WAT       -38.6820  -75.4160   -9.5830 O         1 <0>         0.0000
   1722 WAT       -38.6820  -75.4160   -9.3330 O         1 <0>         0.0000
   1723 WAT       -38.6820  -75.4160   -9.0830 O         1 <0>         0.0000
   1724 WAT       -38.6820  -75.4160   -8.8330 O         1 <0>         0.0000
   1725 WAT       -38.6820  -75.4160   -8.5830 O         1 <0>         0.0000
   1726 WAT       -38.6820  -75.4160   -8.3330 O         1 <0>         0.0000
   1727 WAT       -38.6820  -75.4160   -8.0830 O         1 <0>         0.0000
   1728 WAT       -38.6820  -75.4160   -7.8330 O         1 <0>         0.0000
   1729 WAT       -38.6820  -75.4160   -7.5830 O         1 <0>         0.0000
   1730 WAT       -38.6820  -75.4160   -7.3330 O         1 <0>         0.0000
   1731 WAT       -38.6820  -75.4160   -7.0830 O         1 <0>         0.0000
   1732 WAT       -38.6820  -75.4160   -6.8330 O         1 <0>         0.0000
   1733 WAT       -38.6820  -75.4160   -6.5830 O         1 <0>         0.0000
   1734 WAT       -38.6820  -75.4160   -6.3330 O         1 <0>         0.0000
   1735 WAT       -38.6820  -75.4160   -6.0830 O         1 <0>         0.0000
   1736 WAT       -38.6820  -75.4160   -5.8330 O         1 <0>         0.0000
   1737 WAT       -38.6820  -75.4160   -5.5830 O         1 <0>         0.0000
   1738 WAT       -38.6820  -75.4160   -5.3330 O         1 <0>         0.0000
   1739 WAT       -38.6820  -75.4160   -5.0830 O         1 <0>         0.0000
   1740 WAT       -38.6820  -75.4160   -4.8330 O         1 <0>         0.0000
   1741 WAT       -38.6820  -75.4160   -4.5830 O         1 <0>         0.0000
   1742 WAT       -38.6820  -75.4160   -4.3330 O         1 <0>         0.0000
   1743 WAT       -38.6820  -75.4160   -4.0830 O         1 <0>         0.0000
   1744 WAT       -38.6820  -75.4160   -3.8330 O         1 <0>         0.0000
   1745 WAT       -38.6820  -75.4160   -3.5830 O         1 <0>         0.0000
   1746 WAT       -38.6820  -75.4160   -3.3330 O         1 <0>         0.0000
   1747 WAT       -38.6820  -75.4160   -3.0830 O         1 <0>         0.0000
   1748 WAT       -38.6820  -75.4160   -2.8330 O         1 <0>         0.0000
   1749 WAT       -38.6820  -75.4160   -2.5830 O         1 <0>         0.0000
   1750 WAT       -38.6820  -75.4160   -2.3330 O         1 <0>         0.0000
   1751 WAT       -38.6820  -75.4160   -2.0830 O         1 <0>         0.0000
   1752 WAT       -38.6820  -75.4160   -1.8330 O         1 <0>         0.0000
   1753 WAT       -38.6820  -75.4160   -1.5830 O         1 <0>         0.0000
   1754 WAT       -38.6820  -75.4160   -1.3330 O         1 <0>         0.0000
   1755 WAT       -38.6820  -75.4160   -1.0830 O         1 <0>         0.0000
   1756 WAT       -38.6820  -75.4160   -0.8330 O         1 <0>         0.0000
   1757 WAT       -38.6820  -75.4160   -0.5830 O         1 <0>         0.0000
   1758 WAT       -38.6820  -75.4160   -0.3330 O         1 <0>         0.0000
   1759 WAT       -38.6820  -75.4160   -0.0830 O         1 <0>         0.0000
   1760 WAT       -38.6820  -75.1660   -9.8330 O         1 <0>         0.0000
   1761 WAT       -38.6820  -75.1660   -9.5830 O         1 <0>         0.0000
   1762 WAT       -38.6820  -75.1660   -9.3330 O         1 <0>         0.0000
   1763 WAT       -38.6820  -75.1660   -9.0830 O         1 <0>         0.0000
   1764 WAT       -38.6820  -75.1660   -8.8330 O         1 <0>         0.0000
   1765 WAT       -38.6820  -75.1660   -8.5830 O         1 <0>         0.0000
   1766 WAT       -38.6820  -75.1660   -8.3330 O         1 <0>         0.0000
   1767 WAT       -38.6820  -75.1660   -8.0830 O         1 <0>         0.0000
   1768 WAT       -38.6820  -75.1660   -7.8330 O         1 <0>         0.0000
   1769 WAT       -38.6820  -75.1660   -7.5830 O         1 <0>         0.0000
   1770 WAT       -38.6820  -75.1660   -7.3330 O         1 <0>         0.0000
   1771 WAT       -38.6820  -75.1660   -7.0830 O         1 <0>         0.0000
   1772 WAT       -38.6820  -75.1660   -6.8330 O         1 <0>         0.0000
   1773 WAT       -38.6820  -75.1660   -6.5830 O         1 <0>         0.0000
   1774 WAT       -38.6820  -75.1660   -6.3330 O         1 <0>         0.0000
   1775 WAT       -38.6820  -75.1660   -6.0830 O         1 <0>         0.0000
   1776 WAT       -38.6820  -75.1660   -5.8330 O         1 <0>         0.0000
   1777 WAT       -38.6820  -75.1660   -5.5830 O         1 <0>         0.0000
   1778 WAT       -38.6820  -75.1660   -5.3330 O         1 <0>         0.0000
   1779 WAT       -38.6820  -75.1660   -5.0830 O         1 <0>         0.0000
   1780 WAT       -38.6820  -75.1660   -4.8330 O         1 <0>         0.0000
   1781 WAT       -38.6820  -75.1660   -4.5830 O         1 <0>         0.0000
   1782 WAT       -38.6820  -75.1660   -4.3330 O         1 <0>         0.0000
   1783 WAT       -38.6820  -75.1660   -4.0830 O         1 <0>         0.0000
   1784 WAT       -38.6820  -75.1660   -3.8330 O         1 <0>         0.0000
   1785 WAT       -38.6820  -75.1660   -3.5830 O         1 <0>         0.0000
   1786 WAT       -38.6820  -75.1660   -3.3330 O         1 <0>         0.0000
   1787 WAT       -38.6820  -75.1660   -3.0830 O         1 <0>         0.0000
   1788 WAT       -38.6820  -75.1660   -2.8330 O         1 <0>         0.0000
   1789 WAT       -38.6820  -75.1660   -2.5830 O         1 <0>         0.0000
   1790 WAT       -38.6820  -75.1660   -2.3330 O         1 <0>         0.0000
   1791 WAT       -38.6820  -75.1660   -2.0830 O         1 <0>         0.0000
   1792 WAT       -38.6820  -75.1660   -1.8330 O         1 <0>         0.0000
   1793 WAT       -38.6820  -75.1660   -1.5830 O         1 <0>         0.0000
   1794 WAT       -38.6820  -75.1660   -1.3330 O         1 <0>         0.0000
   1795 WAT       -38.6820  -75.1660   -1.0830 O         1 <0>         0.0000
   1796 WAT       -38.6820  -75.1660   -0.8330 O         1 <0>         0.0000
   1797 WAT       -38.6820  -75.1660   -0.5830 O         1 <0>         0.0000
   1798 WAT       -38.6820  -75.1660   -0.3330 O         1 <0>         0.0000
   1799 WAT       -38.6820  -75.1660   -0.0830 O         1 <0>         0.0000
   1800 WAT       -38.6820  -74.9160   -9.8330 O         1 <0>         0.0000
   1801 WAT       -38.6820  -74.9160   -9.5830 O         1 <0>         0.0000
   1802 WAT       -38.6820  -74.9160   -9.3330 O         1 <0>         0.0000
   1803 WAT       -38.6820  -74.9160   -9.0830 O         1 <0>         0.0000
   1804 WAT       -38.6820  -74.9160   -8.8330 O         1 <0>         0.0000
   1805 WAT       -38.6820  -74.9160   -8.5830 O         1 <0>         0.0000
   1806 WAT       -38.6820  -74.9160   -8.3330 O         1 <0>         0.0000
   1807 WAT       -38.6820  -74.9160   -8.0830 O         1 <0>         0.0000
   1808 WAT       -38.6820  -74.9160   -7.8330 O         1 <0>         0.0000
   1809 WAT       -38.6820  -74.9160   -7.5830 O         1 <0>         0.0000
   1810 WAT       -38.6820  -74.9160   -7.3330 O         1 <0>         0.0000
   1811 WAT       -38.6820  -74.9160   -7.0830 O         1 <0>         0.0000
   1812 WAT       -38.6820  -74.9160   -6.8330 O         1 <0>         0.0000
   1813 WAT       -38.6820  -74.9160   -6.5830 O         1 <0>         0.0000
   1814 WAT       -38.6820  -74.9160   -6.3330 O         1 <0>         0.0000
   1815 WAT       -38.6820  -74.9160   -6.0830 O         1 <0>         0.0000
   1816 WAT       -38.6820  -74.9160   -5.8330 O         1 <0>         0.0000
   1817 WAT       -38.6820  -74.9160   -5.5830 O         1 <0>         0.0000
   1818 WAT       -38.6820  -74.9160   -5.3330 O         1 <0>         0.0000
   1819 WAT       -38.6820  -74.9160   -5.0830 O         1 <0>         0.0000
   1820 WAT       -38.6820  -74.9160   -4.8330 O         1 <0>         0.0000
   1821 WAT       -38.6820  -74.9160   -4.5830 O         1 <0>         0.0000
   1822 WAT       -38.6820  -74.9160   -4.3330 O         1 <0>         0.0000
   1823 WAT       -38.6820  -74.9160   -4.0830 O         1 <0>         0.0000
   1824 WAT       -38.6820  -74.9160   -3.8330 O         1 <0>         0.0000
   1825 WAT       -38.6820  -74.9160   -3.5830 O         1 <0>         0.0000
   1826 WAT       -38.6820  -74.9160   -3.3330 O         1 <0>         0.0000
   1827 WAT       -38.6820  -74.9160   -3.0830 O         1 <0>         0.0000
   1828 WAT       -38.6820  -74.9160   -2.8330 O         1 <0>         0.0000
   1829 WAT       -38.6820  -74.9160   -2.5830 O         1 <0>         0.0000
   1830 WAT       -38.6820  -74.9160   -2.3330 O         1 <0>         0.0000
   1831 WAT       -38.6820  -74.9160   -2.0830 O         1 <0>         0.0000
   1832 WAT       -38.6820  -74.9160   -1.8330 O         1 <0>         0.0000
   1833 WAT       -38.6820  -74.9160   -1.5830 O         1 <0>         0.0000
   1834 WAT       -38.6820  -74.9160   -1.3330 O         1 <0>         0.0000
   1835 WAT       -38.6820  -74.9160   -1.0830 O         1 <0>         0.0000
   1836 WAT       -38.6820  -74.9160   -0.8330 O         1 <0>         0.0000
   1837 WAT       -38.6820  -74.9160   -0.5830 O         1 <0>         0.0000
   1838 WAT       -38.6820  -74.9160   -0.3330 O         1 <0>         0.0000
   1839 WAT       -38.6820  -74.9160   -0.0830 O         1 <0>         0.0000
   1840 WAT       -38.6820  -74.6660   -9.8330 O         1 <0>         0.0000
   1841 WAT       -38.6820  -74.6660   -9.5830 O         1 <0>         0.0000
   1842 WAT       -38.6820  -74.6660   -9.3330 O         1 <0>         0.0000
   1843 WAT       -38.6820  -74.6660   -9.0830 O         1 <0>         0.0000
   1844 WAT       -38.6820  -74.6660   -8.8330 O         1 <0>         0.0000
   1845 WAT       -38.6820  -74.6660   -8.5830 O         1 <0>         0.0000
   1846 WAT       -38.6820  -74.6660   -8.3330 O         1 <0>         0.0000
   1847 WAT       -38.6820  -74.6660   -8.0830 O         1 <0>         0.0000
   1848 WAT       -38.6820  -74.6660   -7.8330 O         1 <0>         0.0000
   1849 WAT       -38.6820  -74.6660   -7.5830 O         1 <0>         0.0000
   1850 WAT       -38.6820  -74.6660   -7.3330 O         1 <0>         0.0000
   1851 WAT       -38.6820  -74.6660   -7.0830 O         1 <0>         0.0000
   1852 WAT       -38.6820  -74.6660   -6.8330 O         1 <0>         0.0000
   1853 WAT       -38.6820  -74.6660   -6.5830 O         1 <0>         0.0000
   1854 WAT       -38.6820  -74.6660   -6.3330 O         1 <0>         0.0000
   1855 WAT       -38.6820  -74.6660   -6.0830 O         1 <0>         0.0000
   1856 WAT       -38.6820  -74.6660   -5.8330 O         1 <0>         0.0000
   1857 WAT       -38.6820  -74.6660   -5.5830 O         1 <0>         0.0000
   1858 WAT       -38.6820  -74.6660   -5.3330 O         1 <0>         0.0000
   1859 WAT       -38.6820  -74.6660   -5.0830 O         1 <0>         0.0000
   1860 WAT       -38.6820  -74.6660   -4.8330 O         1 <0>         0.0000
   1861 WAT       -38.6820  -74.6660   -4.5830 O         1 <0>         0.0000
   1862 WAT       -38.6820  -74.6660   -4.3330 O         1 <0>         0.0000
   1863 WAT       -38.6820  -74.6660   -4.0830 O         1 <0>         0.0000
   1864 WAT       -38.6820  -74.6660   -3.8330 O         1 <0>         0.0000
   1865 WAT       -38.6820  -74.6660   -3.5830 O         1 <0>         0.0000
   1866 WAT       -38.6820  -74.6660   -3.3330 O         1 <0>         0.0000
   1867 WAT       -38.6820  -74.6660   -3.0830 O         1 <0>         0.0000
   1868 WAT       -38.6820  -74.6660   -2.8330 O         1 <0>         0.0000
   1869 WAT       -38.6820  -74.6660   -2.5830 O         1 <0>         0.0000
   1870 WAT       -38.6820  -74.6660   -2.3330 O         1 <0>         0.0000
   1871 WAT       -38.6820  -74.6660   -2.0830 O         1 <0>         0.0000
   1872 WAT       -38.6820  -74.6660   -1.8330 O         1 <0>         0.0000
   1873 WAT       -38.6820  -74.6660   -1.5830 O         1 <0>         0.0000
   1874 WAT       -38.6820  -74.6660   -1.3330 O         1 <0>         0.0000
   1875 WAT       -38.6820  -74.6660   -1.0830 O         1 <0>         0.0000
   1876 WAT       -38.6820  -74.6660   -0.8330 O         1 <0>         0.0000
   1877 WAT       -38.6820  -74.6660   -0.5830 O         1 <0>         0.0000
   1878 WAT       -38.6820  -74.6660   -0.3330 O         1 <0>         0.0000
   1879 WAT       -38.6820  -74.6660   -0.0830 O         1 <0>         0.0000
   1880 WAT       -38.6820  -74.4160   -9.8330 O         1 <0>         0.0000
   1881 WAT       -38.6820  -74.4160   -9.5830 O         1 <0>         0.0000
   1882 WAT       -38.6820  -74.4160   -9.3330 O         1 <0>         0.0000
   1883 WAT       -38.6820  -74.4160   -9.0830 O         1 <0>         0.0000
   1884 WAT       -38.6820  -74.4160   -8.8330 O         1 <0>         0.0000
   1885 WAT       -38.6820  -74.4160   -8.5830 O         1 <0>         0.0000
   1886 WAT       -38.6820  -74.4160   -8.3330 O         1 <0>         0.0000
   1887 WAT       -38.6820  -74.4160   -8.0830 O         1 <0>         0.0000
   1888 WAT       -38.6820  -74.4160   -7.8330 O         1 <0>         0.0000
   1889 WAT       -38.6820  -74.4160   -7.5830 O         1 <0>         0.0000
   1890 WAT       -38.6820  -74.4160   -7.3330 O         1 <0>         0.0000
   1891 WAT       -38.6820  -74.4160   -7.0830 O         1 <0>         0.0000
   1892 WAT       -38.6820  -74.4160   -6.8330 O         1 <0>         0.0000
   1893 WAT       -38.6820  -74.4160   -6.5830 O         1 <0>         0.0000
   1894 WAT       -38.6820  -74.4160   -6.3330 O         1 <0>         0.0000
   1895 WAT       -38.6820  -74.4160   -6.0830 O         1 <0>         0.0000
   1896 WAT       -38.6820  -74.4160   -5.8330 O         1 <0>         0.0000
   1897 WAT       -38.6820  -74.4160   -5.5830 O         1 <0>         0.0000
   1898 WAT       -38.6820  -74.4160   -5.3330 O         1 <0>         0.0000
   1899 WAT       -38.6820  -74.4160   -5.0830 O         1 <0>         0.0000
   1900 WAT       -38.6820  -74.4160   -4.8330 O         1 <0>         0.0000
   1901 WAT       -38.6820  -74.4160   -4.5830 O         1 <0>         0.0000
   1902 WAT       -38.6820  -74.4160   -4.3330 O         1 <0>         0.0000
   1903 WAT       -38.6820  -74.4160   -4.0830 O         1 <0>         0.0000
   1904 WAT       -38.6820  -74.4160   -3.8330 O         1 <0>         0.0000
   1905 WAT       -38.6820  -74.4160   -3.5830 O         1 <0>         0.0000
   1906 WAT       -38.6820  -74.4160   -3.3330 O         1 <0>         0.0000
   1907 WAT       -38.6820  -74.4160   -3.0830 O         1 <0>         0.0000
   1908 WAT       -38.6820  -74.4160   -2.8330 O         1 <0>         0.0000
   1909 WAT       -38.6820  -74.4160   -2.5830 O         1 <0>         0.0000
   1910 WAT       -38.6820  -74.4160   -2.3330 O         1 <0>         0.0000
   1911 WAT       -38.6820  -74.4160   -2.0830 O         1 <0>         0.0000
   1912 WAT       -38.6820  -74.4160   -1.8330 O         1 <0>         0.0000
   1913 WAT       -38.6820  -74.4160   -1.5830 O         1 <0>         0.0000
   1914 WAT       -38.6820  -74.4160   -1.3330 O         1 <0>         0.0000
   1915 WAT       -38.6820  -74.4160   -1.0830 O         1 <0>         0.0000
   1916 WAT       -38.6820  -74.4160   -0.8330 O         1 <0>         0.0000
   1917 WAT       -38.6820  -74.4160   -0.5830 O         1 <0>         0.0000
   1918 WAT       -38.6820  -74.4160   -0.3330 O         1 <0>         0.0000
   1919 WAT       -38.6820  -74.4160   -0.0830 O         1 <0>         0.0000
   1920 WAT       -38.6820  -74.1660   -9.8330 O         1 <0>         0.0000
   1921 WAT       -38.6820  -74.1660   -9.5830 O         1 <0>         0.0000
   1922 WAT       -38.6820  -74.1660   -9.3330 O         1 <0>         0.0000
   1923 WAT       -38.6820  -74.1660   -9.0830 O         1 <0>         0.0000
   1924 WAT       -38.6820  -74.1660   -8.8330 O         1 <0>         0.0000
   1925 WAT       -38.6820  -74.1660   -8.5830 O         1 <0>         0.0000
   1926 WAT       -38.6820  -74.1660   -8.3330 O         1 <0>         0.0000
   1927 WAT       -38.6820  -74.1660   -8.0830 O         1 <0>         0.0000
   1928 WAT       -38.6820  -74.1660   -7.8330 O         1 <0>         0.0000
   1929 WAT       -38.6820  -74.1660   -7.5830 O         1 <0>         0.0000
   1930 WAT       -38.6820  -74.1660   -7.3330 O         1 <0>         0.0000
   1931 WAT       -38.6820  -74.1660   -7.0830 O         1 <0>         0.0000
   1932 WAT       -38.6820  -74.1660   -6.8330 O         1 <0>         0.0000
   1933 WAT       -38.6820  -74.1660   -6.5830 O         1 <0>         0.0000
   1934 WAT       -38.6820  -74.1660   -6.3330 O         1 <0>         0.0000
   1935 WAT       -38.6820  -74.1660   -6.0830 O         1 <0>         0.0000
   1936 WAT       -38.6820  -74.1660   -5.8330 O         1 <0>         0.0000
   1937 WAT       -38.6820  -74.1660   -5.5830 O         1 <0>         0.0000
   1938 WAT       -38.6820  -74.1660   -5.3330 O         1 <0>         0.0000
   1939 WAT       -38.6820  -74.1660   -5.0830 O         1 <0>         0.0000
   1940 WAT       -38.6820  -74.1660   -4.8330 O         1 <0>         0.0000
   1941 WAT       -38.6820  -74.1660   -4.5830 O         1 <0>         0.0000
   1942 WAT       -38.6820  -74.1660   -4.3330 O         1 <0>         0.0000
   1943 WAT       -38.6820  -74.1660   -4.0830 O         1 <0>         0.0000
   1944 WAT       -38.6820  -74.1660   -3.8330 O         1 <0>         0.0000
   1945 WAT       -38.6820  -74.1660   -3.5830 O         1 <0>         0.0000
   1946 WAT       -38.6820  -74.1660   -3.3330 O         1 <0>         0.0000
   1947 WAT       -38.6820  -74.1660   -3.0830 O         1 <0>         0.0000
   1948 WAT       -38.6820  -74.1660   -2.8330 O         1 <0>         0.0000
   1949 WAT       -38.6820  -74.1660   -2.5830 O         1 <0>         0.0000
   1950 WAT       -38.6820  -74.1660   -2.3330 O         1 <0>         0.0000
   1951 WAT       -38.6820  -74.1660   -2.0830 O         1 <0>         0.0000
   1952 WAT       -38.6820  -74.1660   -1.8330 O         1 <0>         0.0000
   1953 WAT       -38.6820  -74.1660   -1.5830 O         1 <0>         0.0000
   1954 WAT       -38.6820  -74.1660   -1.3330 O         1 <0>         0.0000
   1955 WAT       -38.6820  -74.1660   -1.0830 O         1 <0>         0.0000
   1956 WAT       -38.6820  -74.1660   -0.8330 O         1 <0>         0.0000
   1957 WAT       -38.6820  -74.1660   -0.5830 O         1 <0>         0.0000
   1958 WAT       -38.6820  -74.1660   -0.3330 O         1 <0>         0.0000
   1959 WAT       -38.6820  -74.1660   -0.0830 O         1 <0>         0.0000
   1960 WAT       -38.6820  -73.9160   -9.8330 O         1 <0>         0.0000
   1961 WAT       -38.6820  -73.9160   -9.5830 O         1 <0>         0.0000
   1962 WAT       -38.6820  -73.9160   -9.3330 O         1 <0>         0.0000
   1963 WAT       -38.6820  -73.9160   -9.0830 O         1 <0>         0.0000
   1964 WAT       -38.6820  -73.9160   -8.8330 O         1 <0>         0.0000
   1965 WAT       -38.6820  -73.9160   -8.5830 O         1 <0>         0.0000
   1966 WAT       -38.6820  -73.9160   -8.3330 O         1 <0>         0.0000
   1967 WAT       -38.6820  -73.9160   -8.0830 O         1 <0>         0.0000
   1968 WAT       -38.6820  -73.9160   -7.8330 O         1 <0>         0.0000
   1969 WAT       -38.6820  -73.9160   -7.5830 O         1 <0>         0.0000
   1970 WAT       -38.6820  -73.9160   -7.3330 O         1 <0>         0.0000
   1971 WAT       -38.6820  -73.9160   -7.0830 O         1 <0>         0.0000
   1972 WAT       -38.6820  -73.9160   -6.8330 O         1 <0>         0.0000
   1973 WAT       -38.6820  -73.9160   -6.5830 O         1 <0>         0.0000
   1974 WAT       -38.6820  -73.9160   -6.3330 O         1 <0>         0.0000
   1975 WAT       -38.6820  -73.9160   -6.0830 O         1 <0>         0.0000
   1976 WAT       -38.6820  -73.9160   -5.8330 O         1 <0>         0.0000
   1977 WAT       -38.6820  -73.9160   -5.5830 O         1 <0>         0.0000
   1978 WAT       -38.6820  -73.9160   -5.3330 O         1 <0>         0.0000
   1979 WAT       -38.6820  -73.9160   -5.0830 O         1 <0>         0.0000
   1980 WAT       -38.6820  -73.9160   -4.8330 O         1 <0>         0.0000
   1981 WAT       -38.6820  -73.9160   -4.5830 O         1 <0>         0.0000
   1982 WAT       -38.6820  -73.9160   -4.3330 O         1 <0>         0.0000
   1983 WAT       -38.6820  -73.9160   -4.0830 O         1 <0>         0.0000
   1984 WAT       -38.6820  -73.9160   -3.8330 O         1 <0>         0.0000
   1985 WAT       -38.6820  -73.9160   -3.5830 O         1 <0>         0.0000
   1986 WAT       -38.6820  -73.9160   -3.3330 O         1 <0>         0.0000
   1987 WAT       -38.6820  -73.9160   -3.0830 O         1 <0>         0.0000
   1988 WAT       -38.6820  -73.9160   -2.8330 O         1 <0>         0.0000
   1989 WAT       -38.6820  -73.9160   -2.5830 O         1 <0>         0.0000
   1990 WAT       -38.6820  -73.9160   -2.3330 O         1 <0>         0.0000
   1991 WAT       -38.6820  -73.9160   -2.0830 O         1 <0>         0.0000
   1992 WAT       -38.6820  -73.9160   -1.8330 O         1 <0>         0.0000
   1993 WAT       -38.6820  -73.9160   -1.5830 O         1 <0>         0.0000
   1994 WAT       -38.6820  -73.9160   -1.3330 O         1 <0>         0.0000
   1995 WAT       -38.6820  -73.9160   -1.0830 O         1 <0>         0.0000
   1996 WAT       -38.6820  -73.9160   -0.8330 O         1 <0>         0.0000
   1997 WAT       -38.6820  -73.9160   -0.5830 O         1 <0>         0.0000
   1998 WAT       -38.6820  -73.9160   -0.3330 O         1 <0>         0.0000
   1999 WAT       -38.6820  -73.9160   -0.0830 O         1 <0>         0.0000
   2000 WAT       -38.6820  -73.6660   -9.8330 O         1 <0>         0.0000
   2001 WAT       -38.6820  -73.6660   -9.5830 O         1 <0>         0.0000
   2002 WAT       -38.6820  -73.6660   -9.3330 O         1 <0>         0.0000
   2003 WAT       -38.6820  -73.6660   -9.0830 O         1 <0>         0.0000
   2004 WAT       -38.6820  -73.6660   -8.8330 O         1 <0>         0.0000
   2005 WAT       -38.6820  -73.6660   -8.5830 O         1 <0>         0.0000
   2006 WAT       -38.6820  -73.6660   -8.3330 O         1 <0>         0.0000
   2007 WAT       -38.6820  -73.6660   -8.0830 O         1 <0>         0.0000
   2008 WAT       -38.6820  -73.6660   -7.8330 O         1 <0>         0.0000
   2009 WAT       -38.6820  -73.6660   -7.5830 O         1 <0>         0.0000
   2010 WAT       -38.6820  -73.6660   -7.3330 O         1 <0>         0.0000
   2011 WAT       -38.6820  -73.6660   -7.0830 O         1 <0>         0.0000
   2012 WAT       -38.6820  -73.6660   -6.8330 O         1 <0>         0.0000
   2013 WAT       -38.6820  -73.6660   -6.5830 O         1 <0>         0.0000
   2014 WAT       -38.6820  -73.6660   -6.3330 O         1 <0>         0.0000
   2015 WAT       -38.6820  -73.6660   -6.0830 O         1 <0>         0.0000
   2016 WAT       -38.6820  -73.6660   -5.8330 O         1 <0>         0.0000
   2017 WAT       -38.6820  -73.6660   -5.5830 O         1 <0>         0.0000
   2018 WAT       -38.6820  -73.6660   -5.3330 O         1 <0>         0.0000
   2019 WAT       -38.6820  -73.6660   -5.0830 O         1 <0>         0.0000
   2020 WAT       -38.6820  -73.6660   -4.8330 O         1 <0>         0.0000
   2021 WAT       -38.6820  -73.6660   -4.5830 O         1 <0>         0.0000
   2022 WAT       -38.6820  -73.6660   -4.3330 O         1 <0>         0.0000
   2023 WAT       -38.6820  -73.6660   -4.0830 O         1 <0>         0.0000
   2024 WAT       -38.6820  -73.6660   -3.8330 O         1 <0>         0.0000
   2025 WAT       -38.6820  -73.6660   -3.5830 O         1 <0>         0.0000
   2026 WAT       -38.6820  -73.6660   -3.3330 O         1 <0>         0.0000
   2027 WAT       -38.6820  -73.6660   -3.0830 O         1 <0>         0.0000
   2028 WAT       -38.6820  -73.6660   -2.8330 O         1 <0>         0.0000
   2029 WAT       -38.6820  -73.6660   -2.5830 O         1 <0>         0.0000
   2030 WAT       -38.6820  -73.6660   -2.3330 O         1 <0>         0.0000
   2031 WAT       -38.6820  -73.6660   -2.0830 O         1 <0>         0.0000
   2032 WAT       -38.6820  -73.6660   -1.8330 O         1 <0>         0.0000
   2033 WAT       -38.6820  -73.6660   -1.5830 O         1 <0>         0.0000
   2034 WAT       -38.6820  -73.6660   -1.3330 O         1 <0>         0.0000
   2035 WAT       -38.6820  -73.6660   -1.0830 O         1 <0>         0.0000
   2036 WAT       -38.6820  -73.6660   -0.8330 O         1 <0>         0.0000
   2037 WAT       -38.6820  -73.6660   -0.5830 O         1 <0>         0.0000
   2038 WAT       -38.6820  -73.6660   -0.3330 O         1 <0>         0.0000
   2039 WAT       -38.6820  -73.6660   -0.0830 O         1 <0>         0.0000
   2040 WAT       -38.6820  -73.4160   -9.8330 O         1 <0>         0.0000
   2041 WAT       -38.6820  -73.4160   -9.5830 O         1 <0>         0.0000
   2042 WAT       -38.6820  -73.4160   -9.3330 O         1 <0>         0.0000
   2043 WAT       -38.6820  -73.4160   -9.0830 O         1 <0>         0.0000
   2044 WAT       -38.6820  -73.4160   -8.8330 O         1 <0>         0.0000
   2045 WAT       -38.6820  -73.4160   -8.5830 O         1 <0>         0.0000
   2046 WAT       -38.6820  -73.4160   -8.3330 O         1 <0>         0.0000
   2047 WAT       -38.6820  -73.4160   -8.0830 O         1 <0>         0.0000
   2048 WAT       -38.6820  -73.4160   -7.8330 O         1 <0>         0.0000
   2049 WAT       -38.6820  -73.4160   -7.5830 O         1 <0>         0.0000
   2050 WAT       -38.6820  -73.4160   -7.3330 O         1 <0>         0.0000
   2051 WAT       -38.6820  -73.4160   -7.0830 O         1 <0>         0.0000
   2052 WAT       -38.6820  -73.4160   -6.8330 O         1 <0>         0.0000
   2053 WAT       -38.6820  -73.4160   -6.5830 O         1 <0>         0.0000
   2054 WAT       -38.6820  -73.4160   -6.3330 O         1 <0>         0.0000
   2055 WAT       -38.6820  -73.4160   -6.0830 O         1 <0>         0.0000
   2056 WAT       -38.6820  -73.4160   -5.8330 O         1 <0>         0.0000
   2057 WAT       -38.6820  -73.4160   -5.5830 O         1 <0>         0.0000
   2058 WAT       -38.6820  -73.4160   -5.3330 O         1 <0>         0.0000
   2059 WAT       -38.6820  -73.4160   -5.0830 O         1 <0>         0.0000
   2060 WAT       -38.6820  -73.4160   -4.8330 O         1 <0>         0.0000
   2061 WAT       -38.6820  -73.4160   -4.5830 O         1 <0>         0.0000
   2062 WAT       -38.6820  -73.4160   -4.3330 O         1 <0>         0.0000
   2063 WAT       -38.6820  -73.4160   -4.0830 O         1 <0>         0.0000
   2064 WAT       -38.6820  -73.4160   -3.8330 O         1 <0>         0.0000
   2065 WAT       -38.6820  -73.4160   -3.5830 O         1 <0>         0.0000
   2066 WAT       -38.6820  -73.4160   -3.3330 O         1 <0>         0.0000
   2067 WAT       -38.6820  -73.4160   -3.0830 O         1 <0>         0.0000
   2068 WAT       -38.6820  -73.4160   -2.8330 O         1 <0>         0.0000
   2069 WAT       -38.6820  -73.4160   -2.5830 O         1 <0>         0.0000
   2070 WAT       -38.6820  -73.4160   -2.3330 O         1 <0>         0.0000
   2071 WAT       -38.6820  -73.4160   -2.0830 O         1 <0>         0.0000
   2072 WAT       -38.6820  -73.4160   -1.8330 O         1 <0>         0.0000
   2073 WAT       -38.6820  -73.4160   -1.5830 O         1 <0>         0.0000
   2074 WAT       -38.6820  -73.4160   -1.3330 O         1 <0>         0.0000
   2075 WAT       -38.6820  -73.4160   -1.0830 O         1 <0>         0.0000
   2076 WAT       -38.6820  -73.4160   -0.8330 O         1 <0>         0.0000
   2077 WAT       -38.6820  -73.4160   -0.5830 O         1 <0>         0.0000
   2078 WAT       -38.6820  -73.4160   -0.3330 O         1 <0>         0.0000
   2079 WAT       -38.6820  -73.4160   -0.0830 O         1 <0>         0.0000
   2080 WAT       -38.6820  -73.1660   -9.8330 O         1 <0>         0.0000
   2081 WAT       -38.6820  -73.1660   -9.5830 O         1 <0>         0.0000
   2082 WAT       -38.6820  -73.1660   -9.3330 O         1 <0>         0.0000
   2083 WAT       -38.6820  -73.1660   -9.0830 O         1 <0>         0.0000
   2084 WAT       -38.6820  -73.1660   -8.8330 O         1 <0>         0.0000
   2085 WAT       -38.6820  -73.1660   -8.5830 O         1 <0>         0.0000
   2086 WAT       -38.6820  -73.1660   -8.3330 O         1 <0>         0.0000
   2087 WAT       -38.6820  -73.1660   -8.0830 O         1 <0>         0.0000
   2088 WAT       -38.6820  -73.1660   -7.8330 O         1 <0>         0.0000
   2089 WAT       -38.6820  -73.1660   -7.5830 O         1 <0>         0.0000
   2090 WAT       -38.6820  -73.1660   -7.3330 O         1 <0>         0.0000
   2091 WAT       -38.6820  -73.1660   -7.0830 O         1 <0>         0.0000
   2092 WAT       -38.6820  -73.1660   -6.8330 O         1 <0>         0.0000
   2093 WAT       -38.6820  -73.1660   -6.5830 O         1 <0>         0.0000
   2094 WAT       -38.6820  -73.1660   -6.3330 O         1 <0>         0.0000
   2095 WAT       -38.6820  -73.1660   -6.0830 O         1 <0>         0.0000
   2096 WAT       -38.6820  -73.1660   -5.8330 O         1 <0>         0.0000
   2097 WAT       -38.6820  -73.1660   -5.5830 O         1 <0>         0.0000
   2098 WAT       -38.6820  -73.1660   -5.3330 O         1 <0>         0.0000
   2099 WAT       -38.6820  -73.1660   -5.0830 O         1 <0>         0.0000
   2100 WAT       -38.6820  -73.1660   -4.8330 O         1 <0>         0.0000
   2101 WAT       -38.6820  -73.1660   -4.5830 O         1 <0>         0.0000
   2102 WAT       -38.6820  -73.1660   -4.3330 O         1 <0>         0.0000
   2103 WAT       -38.6820  -73.1660   -4.0830 O         1 <0>         0.0000
   2104 WAT       -38.6820  -73.1660   -3.8330 O         1 <0>         0.0000
   2105 WAT       -38.6820  -73.1660   -3.5830 O         1 <0>         0.0000
   2106 WAT       -38.6820  -73.1660   -3.3330 O         1 <0>         0.0000
   2107 WAT       -38.6820  -73.1660   -3.0830 O         1 <0>         0.0000
   2108 WAT       -38.6820  -73.1660   -2.8330 O         1 <0>         0.0000
   2109 WAT       -38.6820  -73.1660   -2.5830 O         1 <0>         0.0000
   2110 WAT       -38.6820  -73.1660   -2.3330 O         1 <0>         0.0000
   2111 WAT       -38.6820  -73.1660   -2.0830 O         1 <0>         0.0000
   2112 WAT       -38.6820  -73.1660   -1.8330 O         1 <0>         0.0000
   2113 WAT       -38.6820  -73.1660   -1.5830 O         1 <0>         0.0000
   2114 WAT       -38.6820  -73.1660   -1.3330 O         1 <0>         0.0000
   2115 WAT       -38.6820  -73.1660   -1.0830 O         1 <0>         0.0000
   2116 WAT       -38.6820  -73.1660   -0.8330 O         1 <0>         0.0000
   2117 WAT       -38.6820  -73.1660   -0.5830 O         1 <0>         0.0000
   2118 WAT       -38.6820  -73.1660   -0.3330 O         1 <0>         0.0000
   2119 WAT       -38.6820  -73.1660   -0.0830 O         1 <0>         0.0000
   2120 WAT       -38.6820  -72.9160   -9.8330 O         1 <0>         0.0000
   2121 WAT       -38.6820  -72.9160   -9.5830 O         1 <0>         0.0000
   2122 WAT       -38.6820  -72.9160   -9.3330 O         1 <0>         0.0000
   2123 WAT       -38.6820  -72.9160   -9.0830 O         1 <0>         0.0000
   2124 WAT       -38.6820  -72.9160   -8.8330 O         1 <0>         0.0000
   2125 WAT       -38.6820  -72.9160   -8.5830 O         1 <0>         0.0000
   2126 WAT       -38.6820  -72.9160   -8.3330 O         1 <0>         0.0000
   2127 WAT       -38.6820  -72.9160   -8.0830 O         1 <0>         0.0000
   2128 WAT       -38.6820  -72.9160   -7.8330 O         1 <0>         0.0000
   2129 WAT       -38.6820  -72.9160   -7.5830 O         1 <0>         0.0000
   2130 WAT       -38.6820  -72.9160   -7.3330 O         1 <0>         0.0000
   2131 WAT       -38.6820  -72.9160   -7.0830 O         1 <0>         0.0000
   2132 WAT       -38.6820  -72.9160   -6.8330 O         1 <0>         0.0000
   2133 WAT       -38.6820  -72.9160   -6.5830 O         1 <0>         0.0000
   2134 WAT       -38.6820  -72.9160   -6.3330 O         1 <0>         0.0000
   2135 WAT       -38.6820  -72.9160   -6.0830 O         1 <0>         0.0000
   2136 WAT       -38.6820  -72.9160   -5.8330 O         1 <0>         0.0000
   2137 WAT       -38.6820  -72.9160   -5.5830 O         1 <0>         0.0000
   2138 WAT       -38.6820  -72.9160   -5.3330 O         1 <0>         0.0000
   2139 WAT       -38.6820  -72.9160   -5.0830 O         1 <0>         0.0000
   2140 WAT       -38.6820  -72.9160   -4.8330 O         1 <0>         0.0000
   2141 WAT       -38.6820  -72.9160   -4.5830 O         1 <0>         0.0000
   2142 WAT       -38.6820  -72.9160   -4.3330 O         1 <0>         0.0000
   2143 WAT       -38.6820  -72.9160   -4.0830 O         1 <0>         0.0000
   2144 WAT       -38.6820  -72.9160   -3.8330 O         1 <0>         0.0000
   2145 WAT       -38.6820  -72.9160   -3.5830 O         1 <0>         0.0000
   2146 WAT       -38.6820  -72.9160   -3.3330 O         1 <0>         0.0000
   2147 WAT       -38.6820  -72.9160   -3.0830 O         1 <0>         0.0000
   2148 WAT       -38.6820  -72.9160   -2.8330 O         1 <0>         0.0000
   2149 WAT       -38.6820  -72.9160   -2.5830 O         1 <0>         0.0000
   2150 WAT       -38.6820  -72.9160   -2.3330 O         1 <0>         0.0000
   2151 WAT       -38.6820  -72.9160   -2.0830 O         1 <0>         0.0000
   2152 WAT       -38.6820  -72.9160   -1.8330 O         1 <0>         0.0000
   2153 WAT       -38.6820  -72.9160   -1.5830 O         1 <0>         0.0000
   2154 WAT       -38.6820  -72.9160   -1.3330 O         1 <0>         0.0000
   2155 WAT       -38.6820  -72.9160   -1.0830 O         1 <0>         0.0000
   2156 WAT       -38.6820  -72.9160   -0.8330 O         1 <0>         0.0000
   2157 WAT       -38.6820  -72.9160   -0.5830 O         1 <0>         0.0000
   2158 WAT       -38.6820  -72.9160   -0.3330 O         1 <0>         0.0000
   2159 WAT       -38.6820  -72.9160   -0.0830 O         1 <0>         0.0000
   2160 WAT       -38.6820  -72.6660   -9.8330 O         1 <0>         0.0000
   2161 WAT       -38.6820  -72.6660   -9.5830 O         1 <0>         0.0000
   2162 WAT       -38.6820  -72.6660   -9.3330 O         1 <0>         0.0000
   2163 WAT       -38.6820  -72.6660   -9.0830 O         1 <0>         0.0000
   2164 WAT       -38.6820  -72.6660   -8.8330 O         1 <0>         0.0000
   2165 WAT       -38.6820  -72.6660   -8.5830 O         1 <0>         0.0000
   2166 WAT       -38.6820  -72.6660   -8.3330 O         1 <0>         0.0000
   2167 WAT       -38.6820  -72.6660   -8.0830 O         1 <0>         0.0000
   2168 WAT       -38.6820  -72.6660   -7.8330 O         1 <0>         0.0000
   2169 WAT       -38.6820  -72.6660   -7.5830 O         1 <0>         0.0000
   2170 WAT       -38.6820  -72.6660   -7.3330 O         1 <0>         0.0000
   2171 WAT       -38.6820  -72.6660   -7.0830 O         1 <0>         0.0000
   2172 WAT       -38.6820  -72.6660   -6.8330 O         1 <0>         0.0000
   2173 WAT       -38.6820  -72.6660   -6.5830 O         1 <0>         0.0000
   2174 WAT       -38.6820  -72.6660   -6.3330 O         1 <0>         0.0000
   2175 WAT       -38.6820  -72.6660   -6.0830 O         1 <0>         0.0000
   2176 WAT       -38.6820  -72.6660   -5.8330 O         1 <0>         0.0000
   2177 WAT       -38.6820  -72.6660   -5.5830 O         1 <0>         0.0000
   2178 WAT       -38.6820  -72.6660   -5.3330 O         1 <0>         0.0000
   2179 WAT       -38.6820  -72.6660   -5.0830 O         1 <0>         0.0000
   2180 WAT       -38.6820  -72.6660   -4.8330 O         1 <0>         0.0000
   2181 WAT       -38.6820  -72.6660   -4.5830 O         1 <0>         0.0000
   2182 WAT       -38.6820  -72.6660   -4.3330 O         1 <0>         0.0000
   2183 WAT       -38.6820  -72.6660   -4.0830 O         1 <0>         0.0000
   2184 WAT       -38.6820  -72.6660   -3.8330 O         1 <0>         0.0000
   2185 WAT       -38.6820  -72.6660   -3.5830 O         1 <0>         0.0000
   2186 WAT       -38.6820  -72.6660   -3.3330 O         1 <0>         0.0000
   2187 WAT       -38.6820  -72.6660   -3.0830 O         1 <0>         0.0000
   2188 WAT       -38.6820  -72.6660   -2.8330 O         1 <0>         0.0000
   2189 WAT       -38.6820  -72.6660   -2.5830 O         1 <0>         0.0000
   2190 WAT       -38.6820  -72.6660   -2.3330 O         1 <0>         0.0000
   2191 WAT       -38.6820  -72.6660   -2.0830 O         1 <0>         0.0000
   2192 WAT       -38.6820  -72.6660   -1.8330 O         1 <0>         0.0000
   2193 WAT       -38.6820  -72.6660   -1.5830 O         1 <0>         0.0000
   2194 WAT       -38.6820  -72.6660   -1.3330 O         1 <0>         0.0000
   2195 WAT       -38.6820  -72.6660   -1.0830 O         1 <0>         0.0000
   2196 WAT       -38.6820  -72.6660   -0.8330 O         1 <0>         0.0000
   2197 WAT       -38.6820  -72.6660   -0.5830 O         1 <0>         0.0000
   2198 WAT       -38.6820  -72.6660   -0.3330 O         1 <0>         0.0000
   2199 WAT       -38.6820  -72.6660   -0.0830 O         1 <0>         0.0000
   2200 WAT       -38.6820  -72.4160   -9.8330 O         1 <0>         0.0000
   2201 WAT       -38.6820  -72.4160   -9.5830 O         1 <0>         0.0000
   2202 WAT       -38.6820  -72.4160   -9.3330 O         1 <0>         0.0000
   2203 WAT       -38.6820  -72.4160   -9.0830 O         1 <0>         0.0000
   2204 WAT       -38.6820  -72.4160   -8.8330 O         1 <0>         0.0000
   2205 WAT       -38.6820  -72.4160   -8.5830 O         1 <0>         0.0000
   2206 WAT       -38.6820  -72.4160   -8.3330 O         1 <0>         0.0000
   2207 WAT       -38.6820  -72.4160   -8.0830 O         1 <0>         0.0000
   2208 WAT       -38.6820  -72.4160   -7.8330 O         1 <0>         0.0000
   2209 WAT       -38.6820  -72.4160   -7.5830 O         1 <0>         0.0000
   2210 WAT       -38.6820  -72.4160   -7.3330 O         1 <0>         0.0000
   2211 WAT       -38.6820  -72.4160   -7.0830 O         1 <0>         0.0000
   2212 WAT       -38.6820  -72.4160   -6.8330 O         1 <0>         0.0000
   2213 WAT       -38.6820  -72.4160   -6.5830 O         1 <0>         0.0000
   2214 WAT       -38.6820  -72.4160   -6.3330 O         1 <0>         0.0000
   2215 WAT       -38.6820  -72.4160   -6.0830 O         1 <0>         0.0000
   2216 WAT       -38.6820  -72.4160   -5.8330 O         1 <0>         0.0000
   2217 WAT       -38.6820  -72.4160   -5.5830 O         1 <0>         0.0000
   2218 WAT       -38.6820  -72.4160   -5.3330 O         1 <0>         0.0000
   2219 WAT       -38.6820  -72.4160   -5.0830 O         1 <0>         0.0000
   2220 WAT       -38.6820  -72.4160   -4.8330 O         1 <0>         0.0000
   2221 WAT       -38.6820  -72.4160   -4.5830 O         1 <0>         0.0000
   2222 WAT       -38.6820  -72.4160   -4.3330 O         1 <0>         0.0000
   2223 WAT       -38.6820  -72.4160   -4.0830 O         1 <0>         0.0000
   2224 WAT       -38.6820  -72.4160   -3.8330 O         1 <0>         0.0000
   2225 WAT       -38.6820  -72.4160   -3.5830 O         1 <0>         0.0000
   2226 WAT       -38.6820  -72.4160   -3.3330 O         1 <0>         0.0000
   2227 WAT       -38.6820  -72.4160   -3.0830 O         1 <0>         0.0000
   2228 WAT       -38.6820  -72.4160   -2.8330 O         1 <0>         0.0000
   2229 WAT       -38.6820  -72.4160   -2.5830 O         1 <0>         0.0000
   2230 WAT       -38.6820  -72.4160   -2.3330 O         1 <0>         0.0000
   2231 WAT       -38.6820  -72.4160   -2.0830 O         1 <0>         0.0000
   2232 WAT       -38.6820  -72.4160   -1.8330 O         1 <0>         0.0000
   2233 WAT       -38.6820  -72.4160   -1.5830 O         1 <0>         0.0000
   2234 WAT       -38.6820  -72.4160   -1.3330 O         1 <0>         0.0000
   2235 WAT       -38.6820  -72.4160   -1.0830 O         1 <0>         0.0000
   2236 WAT       -38.6820  -72.4160   -0.8330 O         1 <0>         0.0000
   2237 WAT       -38.6820  -72.4160   -0.5830 O         1 <0>         0.0000
   2238 WAT       -38.6820  -72.4160   -0.3330 O         1 <0>         0.0000
   2239 WAT       -38.6820  -72.4160   -0.0830 O         1 <0>         0.0000
   2240 WAT       -38.6820  -72.1660   -9.8330 O         1 <0>         0.0000
   2241 WAT       -38.6820  -72.1660   -9.5830 O         1 <0>         0.0000
   2242 WAT       -38.6820  -72.1660   -9.3330 O         1 <0>         0.0000
   2243 WAT       -38.6820  -72.1660   -9.0830 O         1 <0>         0.0000
   2244 WAT       -38.6820  -72.1660   -8.8330 O         1 <0>         0.0000
   2245 WAT       -38.6820  -72.1660   -8.5830 O         1 <0>         0.0000
   2246 WAT       -38.6820  -72.1660   -8.3330 O         1 <0>         0.0000
   2247 WAT       -38.6820  -72.1660   -8.0830 O         1 <0>         0.0000
   2248 WAT       -38.6820  -72.1660   -7.8330 O         1 <0>         0.0000
   2249 WAT       -38.6820  -72.1660   -7.5830 O         1 <0>         0.0000
   2250 WAT       -38.6820  -72.1660   -7.3330 O         1 <0>         0.0000
   2251 WAT       -38.6820  -72.1660   -7.0830 O         1 <0>         0.0000
   2252 WAT       -38.6820  -72.1660   -6.8330 O         1 <0>         0.0000
   2253 WAT       -38.6820  -72.1660   -6.5830 O         1 <0>         0.0000
   2254 WAT       -38.6820  -72.1660   -6.3330 O         1 <0>         0.0000
   2255 WAT       -38.6820  -72.1660   -6.0830 O         1 <0>         0.0000
   2256 WAT       -38.6820  -72.1660   -5.8330 O         1 <0>         0.0000
   2257 WAT       -38.6820  -72.1660   -5.5830 O         1 <0>         0.0000
   2258 WAT       -38.6820  -72.1660   -5.3330 O         1 <0>         0.0000
   2259 WAT       -38.6820  -72.1660   -5.0830 O         1 <0>         0.0000
   2260 WAT       -38.6820  -72.1660   -4.8330 O         1 <0>         0.0000
   2261 WAT       -38.6820  -72.1660   -4.5830 O         1 <0>         0.0000
   2262 WAT       -38.6820  -72.1660   -4.3330 O         1 <0>         0.0000
   2263 WAT       -38.6820  -72.1660   -4.0830 O         1 <0>         0.0000
   2264 WAT       -38.6820  -72.1660   -3.8330 O         1 <0>         0.0000
   2265 WAT       -38.6820  -72.1660   -3.5830 O         1 <0>         0.0000
   2266 WAT       -38.6820  -72.1660   -3.3330 O         1 <0>         0.0000
   2267 WAT       -38.6820  -72.1660   -3.0830 O         1 <0>         0.0000
   2268 WAT       -38.6820  -72.1660   -2.8330 O         1 <0>         0.0000
   2269 WAT       -38.6820  -72.1660   -2.5830 O         1 <0>         0.0000
   2270 WAT       -38.6820  -72.1660   -2.3330 O         1 <0>         0.0000
   2271 WAT       -38.6820  -72.1660   -2.0830 O         1 <0>         0.0000
   2272 WAT       -38.6820  -72.1660   -1.8330 O         1 <0>         0.0000
   2273 WAT       -38.6820  -72.1660   -1.5830 O         1 <0>         0.0000
   2274 WAT       -38.6820  -72.1660   -1.3330 O         1 <0>         0.0000
   2275 WAT       -38.6820  -72.1660   -1.0830 O         1 <0>         0.0000
   2276 WAT       -38.6820  -72.1660   -0.8330 O         1 <0>         0.0000
   2277 WAT       -38.6820  -72.1660   -0.5830 O         1 <0>         0.0000
   2278 WAT       -38.6820  -72.1660   -0.3330 O         1 <0>         0.0000
   2279 WAT       -38.6820  -72.1660   -0.0830 O         1 <0>         0.0000
   2280 WAT       -38.6820  -71.9160   -9.8330 O         1 <0>         0.0000
   2281 WAT       -38.6820  -71.9160   -9.5830 O         1 <0>         0.0000
   2282 WAT       -38.6820  -71.9160   -9.3330 O         1 <0>         0.0000
   2283 WAT       -38.6820  -71.9160   -9.0830 O         1 <0>         0.0000
   2284 WAT       -38.6820  -71.9160   -8.8330 O         1 <0>         0.0000
   2285 WAT       -38.6820  -71.9160   -8.5830 O         1 <0>         0.0000
   2286 WAT       -38.6820  -71.9160   -8.3330 O         1 <0>         0.0000
   2287 WAT       -38.6820  -71.9160   -8.0830 O         1 <0>         0.0000
   2288 WAT       -38.6820  -71.9160   -7.8330 O         1 <0>         0.0000
   2289 WAT       -38.6820  -71.9160   -7.5830 O         1 <0>         0.0000
   2290 WAT       -38.6820  -71.9160   -7.3330 O         1 <0>         0.0000
   2291 WAT       -38.6820  -71.9160   -7.0830 O         1 <0>         0.0000
   2292 WAT       -38.6820  -71.9160   -6.8330 O         1 <0>         0.0000
   2293 WAT       -38.6820  -71.9160   -6.5830 O         1 <0>         0.0000
   2294 WAT       -38.6820  -71.9160   -6.3330 O         1 <0>         0.0000
   2295 WAT       -38.6820  -71.9160   -6.0830 O         1 <0>         0.0000
   2296 WAT       -38.6820  -71.9160   -5.8330 O         1 <0>         0.0000
   2297 WAT       -38.6820  -71.9160   -5.5830 O         1 <0>         0.0000
   2298 WAT       -38.6820  -71.9160   -5.3330 O         1 <0>         0.0000
   2299 WAT       -38.6820  -71.9160   -5.0830 O         1 <0>         0.0000
   2300 WAT       -38.6820  -71.9160   -4.8330 O         1 <0>         0.0000
   2301 WAT       -38.6820  -71.9160   -4.5830 O         1 <0>         0.0000
   2302 WAT       -38.6820  -71.9160   -4.3330 O         1 <0>         0.0000
   2303 WAT       -38.6820  -71.9160   -4.0830 O         1 <0>         0.0000
   2304 WAT       -38.6820  -71.9160   -3.8330 O         1 <0>         0.0000
   2305 WAT       -38.6820  -71.9160   -3.5830 O         1 <0>         0.0000
   2306 WAT       -38.6820  -71.9160   -3.3330 O         1 <0>         0.0000
   2307 WAT       -38.6820  -71.9160   -3.0830 O         1 <0>         0.0000
   2308 WAT       -38.6820  -71.9160   -2.8330 O         1 <0>         0.0000
   2309 WAT       -38.6820  -71.9160   -2.5830 O         1 <0>         0.0000
   2310 WAT       -38.6820  -71.9160   -2.3330 O         1 <0>         0.0000
   2311 WAT       -38.6820  -71.9160   -2.0830 O         1 <0>         0.0000
   2312 WAT       -38.6820  -71.9160   -1.8330 O         1 <0>         0.0000
   2313 WAT       -38.6820  -71.9160   -1.5830 O         1 <0>         0.0000
   2314 WAT       -38.6820  -71.9160   -1.3330 O         1 <0>         0.0000
   2315 WAT       -38.6820  -71.9160   -1.0830 O         1 <0>         0.0000
   2316 WAT       -38.6820  -71.9160   -0.8330 O         1 <0>         0.0000
   2317 WAT       -38.6820  -71.9160   -0.5830 O         1 <0>         0.0000
   2318 WAT       -38.6820  -71.9160   -0.3330 O         1 <0>         0.0000
   2319 WAT       -38.6820  -71.9160   -0.0830 O         1 <0>         0.0000
   2320 WAT       -38.6820  -71.6660   -9.8330 O         1 <0>         0.0000
   2321 WAT       -38.6820  -71.6660   -9.5830 O         1 <0>         0.0000
   2322 WAT       -38.6820  -71.6660   -9.3330 O         1 <0>         0.0000
   2323 WAT       -38.6820  -71.6660   -9.0830 O         1 <0>         0.0000
   2324 WAT       -38.6820  -71.6660   -8.8330 O         1 <0>         0.0000
   2325 WAT       -38.6820  -71.6660   -8.5830 O         1 <0>         0.0000
   2326 WAT       -38.6820  -71.6660   -8.3330 O         1 <0>         0.0000
   2327 WAT       -38.6820  -71.6660   -8.0830 O         1 <0>         0.0000
   2328 WAT       -38.6820  -71.6660   -7.8330 O         1 <0>         0.0000
   2329 WAT       -38.6820  -71.6660   -7.5830 O         1 <0>         0.0000
   2330 WAT       -38.6820  -71.6660   -7.3330 O         1 <0>         0.0000
   2331 WAT       -38.6820  -71.6660   -7.0830 O         1 <0>         0.0000
   2332 WAT       -38.6820  -71.6660   -6.8330 O         1 <0>         0.0000
   2333 WAT       -38.6820  -71.6660   -6.5830 O         1 <0>         0.0000
   2334 WAT       -38.6820  -71.6660   -6.3330 O         1 <0>         0.0000
   2335 WAT       -38.6820  -71.6660   -6.0830 O         1 <0>         0.0000
   2336 WAT       -38.6820  -71.6660   -5.8330 O         1 <0>         0.0000
   2337 WAT       -38.6820  -71.6660   -5.5830 O         1 <0>         0.0000
   2338 WAT       -38.6820  -71.6660   -5.3330 O         1 <0>         0.0000
   2339 WAT       -38.6820  -71.6660   -5.0830 O         1 <0>         0.0000
   2340 WAT       -38.6820  -71.6660   -4.8330 O         1 <0>         0.0000
   2341 WAT       -38.6820  -71.6660   -4.5830 O         1 <0>         0.0000
   2342 WAT       -38.6820  -71.6660   -4.3330 O         1 <0>         0.0000
   2343 WAT       -38.6820  -71.6660   -4.0830 O         1 <0>         0.0000
   2344 WAT       -38.6820  -71.6660   -3.8330 O         1 <0>         0.0000
   2345 WAT       -38.6820  -71.6660   -3.5830 O         1 <0>         0.0000
   2346 WAT       -38.6820  -71.6660   -3.3330 O         1 <0>         0.0000
   2347 WAT       -38.6820  -71.6660   -3.0830 O         1 <0>         0.0000
   2348 WAT       -38.6820  -71.6660   -2.8330 O         1 <0>         0.0000
   2349 WAT       -38.6820  -71.6660   -2.5830 O         1 <0>         0.0000
   2350 WAT       -38.6820  -71.6660   -2.3330 O         1 <0>         0.0000
   2351 WAT       -38.6820  -71.6660   -2.0830 O         1 <0>         0.0000
   2352 WAT       -38.6820  -71.6660   -1.8330 O         1 <0>         0.0000
   2353 WAT       -38.6820  -71.6660   -1.5830 O         1 <0>         0.0000
   2354 WAT       -38.6820  -71.6660   -1.3330 O         1 <0>         0.0000
   2355 WAT       -38.6820  -71.6660   -1.0830 O         1 <0>         0.0000
   2356 WAT       -38.6820  -71.6660   -0.8330 O         1 <0>         0.0000
   2357 WAT       -38.6820  -71.6660   -0.5830 O         1 <0>         0.0000
   2358 WAT       -38.6820  -71.6660   -0.3330 O         1 <0>         0.0000
   2359 WAT       -38.6820  -71.6660   -0.0830 O         1 <0>         0.0000
   2360 WAT       -38.6820  -71.4160   -9.8330 O         1 <0>         0.0000
   2361 WAT       -38.6820  -71.4160   -9.5830 O         1 <0>         0.0000
   2362 WAT       -38.6820  -71.4160   -9.3330 O         1 <0>         0.0000
   2363 WAT       -38.6820  -71.4160   -9.0830 O         1 <0>         0.0000
   2364 WAT       -38.6820  -71.4160   -8.8330 O         1 <0>         0.0000
   2365 WAT       -38.6820  -71.4160   -8.5830 O         1 <0>         0.0000
   2366 WAT       -38.6820  -71.4160   -8.3330 O         1 <0>         0.0000
   2367 WAT       -38.6820  -71.4160   -8.0830 O         1 <0>         0.0000
   2368 WAT       -38.6820  -71.4160   -7.8330 O         1 <0>         0.0000
   2369 WAT       -38.6820  -71.4160   -7.5830 O         1 <0>         0.0000
   2370 WAT       -38.6820  -71.4160   -7.3330 O         1 <0>         0.0000
   2371 WAT       -38.6820  -71.4160   -7.0830 O         1 <0>         0.0000
   2372 WAT       -38.6820  -71.4160   -6.8330 O         1 <0>         0.0000
   2373 WAT       -38.6820  -71.4160   -6.5830 O         1 <0>         0.0000
   2374 WAT       -38.6820  -71.4160   -6.3330 O         1 <0>         0.0000
   2375 WAT       -38.6820  -71.4160   -6.0830 O         1 <0>         0.0000
   2376 WAT       -38.6820  -71.4160   -5.8330 O         1 <0>         0.0000
   2377 WAT       -38.6820  -71.4160   -5.5830 O         1 <0>         0.0000
   2378 WAT       -38.6820  -71.4160   -5.3330 O         1 <0>         0.0000
   2379 WAT       -38.6820  -71.4160   -5.0830 O         1 <0>         0.0000
   2380 WAT       -38.6820  -71.4160   -4.8330 O         1 <0>         0.0000
   2381 WAT       -38.6820  -71.4160   -4.5830 O         1 <0>         0.0000
   2382 WAT       -38.6820  -71.4160   -4.3330 O         1 <0>         0.0000
   2383 WAT       -38.6820  -71.4160   -4.0830 O         1 <0>         0.0000
   2384 WAT       -38.6820  -71.4160   -3.8330 O         1 <0>         0.0000
   2385 WAT       -38.6820  -71.4160   -3.5830 O         1 <0>         0.0000
   2386 WAT       -38.6820  -71.4160   -3.3330 O         1 <0>         0.0000
   2387 WAT       -38.6820  -71.4160   -3.0830 O         1 <0>         0.0000
   2388 WAT       -38.6820  -71.4160   -2.8330 O         1 <0>         0.0000
   2389 WAT       -38.6820  -71.4160   -2.5830 O         1 <0>         0.0000
   2390 WAT       -38.6820  -71.4160   -2.3330 O         1 <0>         0.0000
   2391 WAT       -38.6820  -71.4160   -2.0830 O         1 <0>         0.0000
   2392 WAT       -38.6820  -71.4160   -1.8330 O         1 <0>         0.0000
   2393 WAT       -38.6820  -71.4160   -1.5830 O         1 <0>         0.0000
   2394 WAT       -38.6820  -71.4160   -1.3330 O         1 <0>         0.0000
   2395 WAT       -38.6820  -71.4160   -1.0830 O         1 <0>         0.0000
   2396 WAT       -38.6820  -71.4160   -0.8330 O         1 <0>         0.0000
   2397 WAT       -38.6820  -71.4160   -0.5830 O         1 <0>         0.0000
   2398 WAT       -38.6820  -71.4160   -0.3330 O         1 <0>         0.0000
   2399 WAT       -38.6820  -71.4160   -0.0830 O         1 <0>         0.0000
   2400 WAT       -38.6820  -71.1660   -9.8330 O         1 <0>         0.0000
   2401 WAT       -38.6820  -71.1660   -9.5830 O         1 <0>         0.0000
   2402 WAT       -38.6820  -71.1660   -9.3330 O         1 <0>         0.0000
   2403 WAT       -38.6820  -71.1660   -9.0830 O         1 <0>         0.0000
   2404 WAT       -38.6820  -71.1660   -8.8330 O         1 <0>         0.0000
   2405 WAT       -38.6820  -71.1660   -8.5830 O         1 <0>         0.0000
   2406 WAT       -38.6820  -71.1660   -8.3330 O         1 <0>         0.0000
   2407 WAT       -38.6820  -71.1660   -8.0830 O         1 <0>         0.0000
   2408 WAT       -38.6820  -71.1660   -7.8330 O         1 <0>         0.0000
   2409 WAT       -38.6820  -71.1660   -7.5830 O         1 <0>         0.0000
   2410 WAT       -38.6820  -71.1660   -7.3330 O         1 <0>         0.0000
   2411 WAT       -38.6820  -71.1660   -7.0830 O         1 <0>         0.0000
   2412 WAT       -38.6820  -71.1660   -6.8330 O         1 <0>         0.0000
   2413 WAT       -38.6820  -71.1660   -6.5830 O         1 <0>         0.0000
   2414 WAT       -38.6820  -71.1660   -6.3330 O         1 <0>         0.0000
   2415 WAT       -38.6820  -71.1660   -6.0830 O         1 <0>         0.0000
   2416 WAT       -38.6820  -71.1660   -5.8330 O         1 <0>         0.0000
   2417 WAT       -38.6820  -71.1660   -5.5830 O         1 <0>         0.0000
   2418 WAT       -38.6820  -71.1660   -5.3330 O         1 <0>         0.0000
   2419 WAT       -38.6820  -71.1660   -5.0830 O         1 <0>         0.0000
   2420 WAT       -38.6820  -71.1660   -4.8330 O         1 <0>         0.0000
   2421 WAT       -38.6820  -71.1660   -4.5830 O         1 <0>         0.0000
   2422 WAT       -38.6820  -71.1660   -4.3330 O         1 <0>         0.0000
   2423 WAT       -38.6820  -71.1660   -4.0830 O         1 <0>         0.0000
   2424 WAT       -38.6820  -71.1660   -3.8330 O         1 <0>         0.0000
   2425 WAT       -38.6820  -71.1660   -3.5830 O         1 <0>         0.0000
   2426 WAT       -38.6820  -71.1660   -3.3330 O         1 <0>         0.0000
   2427 WAT       -38.6820  -71.1660   -3.0830 O         1 <0>         0.0000
   2428 WAT       -38.6820  -71.1660   -2.8330 O         1 <0>         0.0000
   2429 WAT       -38.6820  -71.1660   -2.5830 O         1 <0>         0.0000
   2430 WAT       -38.6820  -71.1660   -2.3330 O         1 <0>         0.0000
   2431 WAT       -38.6820  -71.1660   -2.0830 O         1 <0>         0.0000
   2432 WAT       -38.6820  -71.1660   -1.8330 O         1 <0>         0.0000
   2433 WAT       -38.6820  -71.1660   -1.5830 O         1 <0>         0.0000
   2434 WAT       -38.6820  -71.1660   -1.3330 O         1 <0>         0.0000
   2435 WAT       -38.6820  -71.1660   -1.0830 O         1 <0>         0.0000
   2436 WAT       -38.6820  -71.1660   -0.8330 O         1 <0>         0.0000
   2437 WAT       -38.6820  -71.1660   -0.5830 O         1 <0>         0.0000
   2438 WAT       -38.6820  -71.1660   -0.3330 O         1 <0>         0.0000
   2439 WAT       -38.6820  -71.1660   -0.0830 O         1 <0>         0.0000
   2440 WAT       -38.6820  -70.9160   -9.8330 O         1 <0>         0.0000
   2441 WAT       -38.6820  -70.9160   -9.5830 O         1 <0>         0.0000
   2442 WAT       -38.6820  -70.9160   -9.3330 O         1 <0>         0.0000
   2443 WAT       -38.6820  -70.9160   -9.0830 O         1 <0>         0.0000
   2444 WAT       -38.6820  -70.9160   -8.8330 O         1 <0>         0.0000
   2445 WAT       -38.6820  -70.9160   -8.5830 O         1 <0>         0.0000
   2446 WAT       -38.6820  -70.9160   -8.3330 O         1 <0>         0.0000
   2447 WAT       -38.6820  -70.9160   -8.0830 O         1 <0>         0.0000
   2448 WAT       -38.6820  -70.9160   -7.8330 O         1 <0>         0.0000
   2449 WAT       -38.6820  -70.9160   -7.5830 O         1 <0>         0.0000
   2450 WAT       -38.6820  -70.9160   -7.3330 O         1 <0>         0.0000
   2451 WAT       -38.6820  -70.9160   -7.0830 O         1 <0>         0.0000
   2452 WAT       -38.6820  -70.9160   -6.8330 O         1 <0>         0.0000
   2453 WAT       -38.6820  -70.9160   -6.5830 O         1 <0>         0.0000
   2454 WAT       -38.6820  -70.9160   -6.3330 O         1 <0>         0.0000
   2455 WAT       -38.6820  -70.9160   -6.0830 O         1 <0>         0.0000
   2456 WAT       -38.6820  -70.9160   -5.8330 O         1 <0>         0.0000
   2457 WAT       -38.6820  -70.9160   -5.5830 O         1 <0>         0.0000
   2458 WAT       -38.6820  -70.9160   -5.3330 O         1 <0>         0.0000
   2459 WAT       -38.6820  -70.9160   -5.0830 O         1 <0>         0.0000
   2460 WAT       -38.6820  -70.9160   -4.8330 O         1 <0>         0.0000
   2461 WAT       -38.6820  -70.9160   -4.5830 O         1 <0>         0.0000
   2462 WAT       -38.6820  -70.9160   -4.3330 O         1 <0>         0.0000
   2463 WAT       -38.6820  -70.9160   -4.0830 O         1 <0>         0.0000
   2464 WAT       -38.6820  -70.9160   -3.8330 O         1 <0>         0.0000
   2465 WAT       -38.6820  -70.9160   -3.5830 O         1 <0>         0.0000
   2466 WAT       -38.6820  -70.9160   -3.3330 O         1 <0>         0.0000
   2467 WAT       -38.6820  -70.9160   -3.0830 O         1 <0>         0.0000
   2468 WAT       -38.6820  -70.9160   -2.8330 O         1 <0>         0.0000
   2469 WAT       -38.6820  -70.9160   -2.5830 O         1 <0>         0.0000
   2470 WAT       -38.6820  -70.9160   -2.3330 O         1 <0>         0.0000
   2471 WAT       -38.6820  -70.9160   -2.0830 O         1 <0>         0.0000
   2472 WAT       -38.6820  -70.9160   -1.8330 O         1 <0>         0.0000
   2473 WAT       -38.6820  -70.9160   -1.5830 O         1 <0>         0.0000
   2474 WAT       -38.6820  -70.9160   -1.3330 O         1 <0>         0.0000
   2475 WAT       -38.6820  -70.9160   -1.0830 O         1 <0>         0.0000
   2476 WAT       -38.6820  -70.9160   -0.8330 O         1 <0>         0.0000
   2477 WAT       -38.6820  -70.9160   -0.5830 O         1 <0>         0.0000
   2478 WAT       -38.6820  -70.9160   -0.3330 O         1 <0>         0.0000
   2479 WAT       -38.6820  -70.9160   -0.0830 O         1 <0>         0.0000
   2480 WAT       -38.6820  -70.6660   -9.8330 O         1 <0>         0.0000
   2481 WAT       -38.6820  -70.6660   -9.5830 O         1 <0>         0.0000
   2482 WAT       -38.6820  -70.6660   -9.3330 O         1 <0>         0.0000
   2483 WAT       -38.6820  -70.6660   -9.0830 O         1 <0>         0.0000
   2484 WAT       -38.6820  -70.6660   -8.8330 O         1 <0>         0.0000
   2485 WAT       -38.6820  -70.6660   -8.5830 O         1 <0>         0.0000
   2486 WAT       -38.6820  -70.6660   -8.3330 O         1 <0>         0.0000
   2487 WAT       -38.6820  -70.6660   -8.0830 O         1 <0>         0.0000
   2488 WAT       -38.6820  -70.6660   -7.8330 O         1 <0>         0.0000
   2489 WAT       -38.6820  -70.6660   -7.5830 O         1 <0>         0.0000
   2490 WAT       -38.6820  -70.6660   -7.3330 O         1 <0>         0.0000
   2491 WAT       -38.6820  -70.6660   -7.0830 O         1 <0>         0.0000
   2492 WAT       -38.6820  -70.6660   -6.8330 O         1 <0>         0.0000
   2493 WAT       -38.6820  -70.6660   -6.5830 O         1 <0>         0.0000
   2494 WAT       -38.6820  -70.6660   -6.3330 O         1 <0>         0.0000
   2495 WAT       -38.6820  -70.6660   -6.0830 O         1 <0>         0.0000
   2496 WAT       -38.6820  -70.6660   -5.8330 O         1 <0>         0.0000
   2497 WAT       -38.6820  -70.6660   -5.5830 O         1 <0>         0.0000
   2498 WAT       -38.6820  -70.6660   -5.3330 O         1 <0>         0.0000
   2499 WAT       -38.6820  -70.6660   -5.0830 O         1 <0>         0.0000
   2500 WAT       -38.6820  -70.6660   -4.8330 O         1 <0>         0.0000
   2501 WAT       -38.6820  -70.6660   -4.5830 O         1 <0>         0.0000
   2502 WAT       -38.6820  -70.6660   -4.3330 O         1 <0>         0.0000
   2503 WAT       -38.6820  -70.6660   -4.0830 O         1 <0>         0.0000
   2504 WAT       -38.6820  -70.6660   -3.8330 O         1 <0>         0.0000
   2505 WAT       -38.6820  -70.6660   -3.5830 O         1 <0>         0.0000
   2506 WAT       -38.6820  -70.6660   -3.3330 O         1 <0>         0.0000
   2507 WAT       -38.6820  -70.6660   -3.0830 O         1 <0>         0.0000
   2508 WAT       -38.6820  -70.6660   -2.8330 O         1 <0>         0.0000
   2509 WAT       -38.6820  -70.6660   -2.5830 O         1 <0>         0.0000
   2510 WAT       -38.6820  -70.6660   -2.3330 O         1 <0>         0.0000
   2511 WAT       -38.6820  -70.6660   -2.0830 O         1 <0>         0.0000
   2512 WAT       -38.6820  -70.6660   -1.8330 O         1 <0>         0.0000
   2513 WAT       -38.6820  -70.6660   -1.5830 O         1 <0>         0.0000
   2514 WAT       -38.6820  -70.6660   -1.3330 O         1 <0>         0.0000
   2515 WAT       -38.6820  -70.6660   -1.0830 O         1 <0>         0.0000
   2516 WAT       -38.6820  -70.6660   -0.8330 O         1 <0>         0.0000
   2517 WAT       -38.6820  -70.6660   -0.5830 O         1 <0>         0.0000
   2518 WAT       -38.6820  -70.6660   -0.3330 O         1 <0>         0.0000
   2519 WAT       -38.6820  -70.6660   -0.0830 O         1 <0>         0.0000
   2520 WAT       -38.6820  -70.4160   -9.8330 O         1 <0>         0.0000
   2521 WAT       -38.6820  -70.4160   -9.5830 O         1 <0>         0.0000
   2522 WAT       -38.6820  -70.4160   -9.3330 O         1 <0>         0.0000
   2523 WAT       -38.6820  -70.4160   -9.0830 O         1 <0>         0.0000
   2524 WAT       -38.6820  -70.4160   -8.8330 O         1 <0>         0.0000
   2525 WAT       -38.6820  -70.4160   -8.5830 O         1 <0>         0.0000
   2526 WAT       -38.6820  -70.4160   -8.3330 O         1 <0>         0.0000
   2527 WAT       -38.6820  -70.4160   -8.0830 O         1 <0>         0.0000
   2528 WAT       -38.6820  -70.4160   -7.8330 O         1 <0>         0.0000
   2529 WAT       -38.6820  -70.4160   -7.5830 O         1 <0>         0.0000
   2530 WAT       -38.6820  -70.4160   -7.3330 O         1 <0>         0.0000
   2531 WAT       -38.6820  -70.4160   -7.0830 O         1 <0>         0.0000
   2532 WAT       -38.6820  -70.4160   -6.8330 O         1 <0>         0.0000
   2533 WAT       -38.6820  -70.4160   -6.5830 O         1 <0>         0.0000
   2534 WAT       -38.6820  -70.4160   -6.3330 O         1 <0>         0.0000
   2535 WAT       -38.6820  -70.4160   -6.0830 O         1 <0>         0.0000
   2536 WAT       -38.6820  -70.4160   -5.8330 O         1 <0>         0.0000
   2537 WAT       -38.6820  -70.4160   -5.5830 O         1 <0>         0.0000
   2538 WAT       -38.6820  -70.4160   -5.3330 O         1 <0>         0.0000
   2539 WAT       -38.6820  -70.4160   -5.0830 O         1 <0>         0.0000
   2540 WAT       -38.6820  -70.4160   -4.8330 O         1 <0>         0.0000
   2541 WAT       -38.6820  -70.4160   -4.5830 O         1 <0>         0.0000
   2542 WAT       -38.6820  -70.4160   -4.3330 O         1 <0>         0.0000
   2543 WAT       -38.6820  -70.4160   -4.0830 O         1 <0>         0.0000
   2544 WAT       -38.6820  -70.4160   -3.8330 O         1 <0>         0.0000
   2545 WAT       -38.6820  -70.4160   -3.5830 O         1 <0>         0.0000
   2546 WAT       -38.6820  -70.4160   -3.3330 O         1 <0>         0.0000
   2547 WAT       -38.6820  -70.4160   -3.0830 O         1 <0>         0.0000
   2548 WAT       -38.6820  -70.4160   -2.8330 O         1 <0>         0.0000
   2549 WAT       -38.6820  -70.4160   -2.5830 O         1 <0>         0.0000
   2550 WAT       -38.6820  -70.4160   -2.3330 O         1 <0>         0.0000
   2551 WAT       -38.6820  -70.4160   -2.0830 O         1 <0>         0.0000
   2552 WAT       -38.6820  -70.4160   -1.8330 O         1 <0>         0.0000
   2553 WAT       -38.6820  -70.4160   -1.5830 O         1 <0>         0.0000
   2554 WAT       -38.6820  -70.4160   -1.3330 O         1 <0>         0.0000
   2555 WAT       -38.6820  -70.4160   -1.0830 O         1 <0>         0.0000
   2556 WAT       -38.6820  -70.4160   -0.8330 O         1 <0>         0.0000
   2557 WAT       -38.6820  -70.4160   -0.5830 O         1 <0>         0.0000
   2558 WAT       -38.6820  -70.4160   -0.3330 O         1 <0>         0.0000
   2559 WAT       -38.6820  -70.4160   -0.0830 O         1 <0>         0.0000
   2560 WAT       -38.6820  -70.1660   -9.8330 O         1 <0>         0.0000
   2561 WAT       -38.6820  -70.1660   -9.5830 O         1 <0>         0.0000
   2562 WAT       -38.6820  -70.1660   -9.3330 O         1 <0>         0.0000
   2563 WAT       -38.6820  -70.1660   -9.0830 O         1 <0>         0.0000
   2564 WAT       -38.6820  -70.1660   -8.8330 O         1 <0>         0.0000
   2565 WAT       -38.6820  -70.1660   -8.5830 O         1 <0>         0.0000
   2566 WAT       -38.6820  -70.1660   -8.3330 O         1 <0>         0.0000
   2567 WAT       -38.6820  -70.1660   -8.0830 O         1 <0>         0.0000
   2568 WAT       -38.6820  -70.1660   -7.8330 O         1 <0>         0.0000
   2569 WAT       -38.6820  -70.1660   -7.5830 O         1 <0>         0.0000
   2570 WAT       -38.6820  -70.1660   -7.3330 O         1 <0>         0.0000
   2571 WAT       -38.6820  -70.1660   -7.0830 O         1 <0>         0.0000
   2572 WAT       -38.6820  -70.1660   -6.8330 O         1 <0>         0.0000
   2573 WAT       -38.6820  -70.1660   -6.5830 O         1 <0>         0.0000
   2574 WAT       -38.6820  -70.1660   -6.3330 O         1 <0>         0.0000
   2575 WAT       -38.6820  -70.1660   -6.0830 O         1 <0>         0.0000
   2576 WAT       -38.6820  -70.1660   -5.8330 O         1 <0>         0.0000
   2577 WAT       -38.6820  -70.1660   -5.5830 O         1 <0>         0.0000
   2578 WAT       -38.6820  -70.1660   -5.3330 O         1 <0>         0.0000
   2579 WAT       -38.6820  -70.1660   -5.0830 O         1 <0>         0.0000
   2580 WAT       -38.6820  -70.1660   -4.8330 O         1 <0>         0.0000
   2581 WAT       -38.6820  -70.1660   -4.5830 O         1 <0>         0.0000
   2582 WAT       -38.6820  -70.1660   -4.3330 O         1 <0>         0.0000
   2583 WAT       -38.6820  -70.1660   -4.0830 O         1 <0>         0.0000
   2584 WAT       -38.6820  -70.1660   -3.8330 O         1 <0>         0.0000
   2585 WAT       -38.6820  -70.1660   -3.5830 O         1 <0>         0.0000
   2586 WAT       -38.6820  -70.1660   -3.3330 O         1 <0>         0.0000
   2587 WAT       -38.6820  -70.1660   -3.0830 O         1 <0>         0.0000
   2588 WAT       -38.6820  -70.1660   -2.8330 O         1 <0>         0.0000
   2589 WAT       -38.6820  -70.1660   -2.5830 O         1 <0>         0.0000
   2590 WAT       -38.6820  -70.1660   -2.3330 O         1 <0>         0.0000
   2591 WAT       -38.6820  -70.1660   -2.0830 O         1 <0>         0.0000
   2592 WAT       -38.6820  -70.1660   -1.8330 O         1 <0>         0.0000
   2593 WAT       -38.6820  -70.1660   -1.5830 O         1 <0>         0.0000
   2594 WAT       -38.6820  -70.1660   -1.3330 O         1 <0>         0.0000
   2595 WAT       -38.6820  -70.1660   -1.0830 O         1 <0>         0.0000
   2596 WAT       -38.6820  -70.1660   -0.8330 O         1 <0>         0.0000
   2597 WAT       -38.6820  -70.1660   -0.5830 O         1 <0>         0.0000
   2598 WAT       -38.6820  -70.1660   -0.3330 O         1 <0>         0.0000
   2599 WAT       -38.6820  -70.1660   -0.0830 O         1 <0>         0.0000
   2600 WAT       -38.6820  -69.9160   -9.8330 O         1 <0>         0.0000
   2601 WAT       -38.6820  -69.9160   -9.5830 O         1 <0>         0.0000
   2602 WAT       -38.6820  -69.9160   -9.3330 O         1 <0>         0.0000
   2603 WAT       -38.6820  -69.9160   -9.0830 O         1 <0>         0.0000
   2604 WAT       -38.6820  -69.9160   -8.8330 O         1 <0>         0.0000
   2605 WAT       -38.6820  -69.9160   -8.5830 O         1 <0>         0.0000
   2606 WAT       -38.6820  -69.9160   -8.3330 O         1 <0>         0.0000
   2607 WAT       -38.6820  -69.9160   -8.0830 O         1 <0>         0.0000
   2608 WAT       -38.6820  -69.9160   -7.8330 O         1 <0>         0.0000
   2609 WAT       -38.6820  -69.9160   -7.5830 O         1 <0>         0.0000
   2610 WAT       -38.6820  -69.9160   -7.3330 O         1 <0>         0.0000
   2611 WAT       -38.6820  -69.9160   -7.0830 O         1 <0>         0.0000
   2612 WAT       -38.6820  -69.9160   -6.8330 O         1 <0>         0.0000
   2613 WAT       -38.6820  -69.9160   -6.5830 O         1 <0>         0.0000
   2614 WAT       -38.6820  -69.9160   -6.3330 O         1 <0>         0.0000
   2615 WAT       -38.6820  -69.9160   -6.0830 O         1 <0>         0.0000
   2616 WAT       -38.6820  -69.9160   -5.8330 O         1 <0>         0.0000
   2617 WAT       -38.6820  -69.9160   -5.5830 O         1 <0>         0.0000
   2618 WAT       -38.6820  -69.9160   -5.3330 O         1 <0>         0.0000
   2619 WAT       -38.6820  -69.9160   -5.0830 O         1 <0>         0.0000
   2620 WAT       -38.6820  -69.9160   -4.8330 O         1 <0>         0.0000
   2621 WAT       -38.6820  -69.9160   -4.5830 O         1 <0>         0.0000
   2622 WAT       -38.6820  -69.9160   -4.3330 O         1 <0>         0.0000
   2623 WAT       -38.6820  -69.9160   -4.0830 O         1 <0>         0.0000
   2624 WAT       -38.6820  -69.9160   -3.8330 O         1 <0>         0.0000
   2625 WAT       -38.6820  -69.9160   -3.5830 O         1 <0>         0.0000
   2626 WAT       -38.6820  -69.9160   -3.3330 O         1 <0>         0.0000
   2627 WAT       -38.6820  -69.9160   -3.0830 O         1 <0>         0.0000
   2628 WAT       -38.6820  -69.9160   -2.8330 O         1 <0>         0.0000
   2629 WAT       -38.6820  -69.9160   -2.5830 O         1 <0>         0.0000
   2630 WAT       -38.6820  -69.9160   -2.3330 O         1 <0>         0.0000
   2631 WAT       -38.6820  -69.9160   -2.0830 O         1 <0>         0.0000
   2632 WAT       -38.6820  -69.9160   -1.8330 O         1 <0>         0.0000
   2633 WAT       -38.6820  -69.9160   -1.5830 O         1 <0>         0.0000
   2634 WAT       -38.6820  -69.9160   -1.3330 O         1 <0>         0.0000
   2635 WAT       -38.6820  -69.9160   -1.0830 O         1 <0>         0.0000
   2636 WAT       -38.6820  -69.9160   -0.8330 O         1 <0>         0.0000
   2637 WAT       -38.6820  -69.9160   -0.5830 O         1 <0>         0.0000
   2638 WAT       -38.6820  -69.9160   -0.3330 O         1 <0>         0.0000
   2639 WAT       -38.6820  -69.9160   -0.0830 O         1 <0>         0.0000
   2640 WAT       -38.6820  -69.6660   -9.8330 O         1 <0>         0.0000
   2641 WAT       -38.6820  -69.6660   -9.5830 O         1 <0>         0.0000
   2642 WAT       -38.6820  -69.6660   -9.3330 O         1 <0>         0.0000
   2643 WAT       -38.6820  -69.6660   -9.0830 O         1 <0>         0.0000
   2644 WAT       -38.6820  -69.6660   -8.8330 O         1 <0>         0.0000
   2645 WAT       -38.6820  -69.6660   -8.5830 O         1 <0>         0.0000
   2646 WAT       -38.6820  -69.6660   -8.3330 O         1 <0>         0.0000
   2647 WAT       -38.6820  -69.6660   -8.0830 O         1 <0>         0.0000
   2648 WAT       -38.6820  -69.6660   -7.8330 O         1 <0>         0.0000
   2649 WAT       -38.6820  -69.6660   -7.5830 O         1 <0>         0.0000
   2650 WAT       -38.6820  -69.6660   -7.3330 O         1 <0>         0.0000
   2651 WAT       -38.6820  -69.6660   -7.0830 O         1 <0>         0.0000
   2652 WAT       -38.6820  -69.6660   -6.8330 O         1 <0>         0.0000
   2653 WAT       -38.6820  -69.6660   -6.5830 O         1 <0>         0.0000
   2654 WAT       -38.6820  -69.6660   -6.3330 O         1 <0>         0.0000
   2655 WAT       -38.6820  -69.6660   -6.0830 O         1 <0>         0.0000
   2656 WAT       -38.6820  -69.6660   -5.8330 O         1 <0>         0.0000
   2657 WAT       -38.6820  -69.6660   -5.5830 O         1 <0>         0.0000
   2658 WAT       -38.6820  -69.6660   -5.3330 O         1 <0>         0.0000
   2659 WAT       -38.6820  -69.6660   -5.0830 O         1 <0>         0.0000
   2660 WAT       -38.6820  -69.6660   -4.8330 O         1 <0>         0.0000
   2661 WAT       -38.6820  -69.6660   -4.5830 O         1 <0>         0.0000
   2662 WAT       -38.6820  -69.6660   -4.3330 O         1 <0>         0.0000
   2663 WAT       -38.6820  -69.6660   -4.0830 O         1 <0>         0.0000
   2664 WAT       -38.6820  -69.6660   -3.8330 O         1 <0>         0.0000
   2665 WAT       -38.6820  -69.6660   -3.5830 O         1 <0>         0.0000
   2666 WAT       -38.6820  -69.6660   -3.3330 O         1 <0>         0.0000
   2667 WAT       -38.6820  -69.6660   -3.0830 O         1 <0>         0.0000
   2668 WAT       -38.6820  -69.6660   -2.8330 O         1 <0>         0.0000
   2669 WAT       -38.6820  -69.6660   -2.5830 O         1 <0>         0.0000
   2670 WAT       -38.6820  -69.6660   -2.3330 O         1 <0>         0.0000
   2671 WAT       -38.6820  -69.6660   -2.0830 O         1 <0>         0.0000
   2672 WAT       -38.6820  -69.6660   -1.8330 O         1 <0>         0.0000
   2673 WAT       -38.6820  -69.6660   -1.5830 O         1 <0>         0.0000
   2674 WAT       -38.6820  -69.6660   -1.3330 O         1 <0>         0.0000
   2675 WAT       -38.6820  -69.6660   -1.0830 O         1 <0>         0.0000
   2676 WAT       -38.6820  -69.6660   -0.8330 O         1 <0>         0.0000
   2677 WAT       -38.6820  -69.6660   -0.5830 O         1 <0>         0.0000
   2678 WAT       -38.6820  -69.6660   -0.3330 O         1 <0>         0.0000
   2679 WAT       -38.6820  -69.6660   -0.0830 O         1 <0>         0.0000
   2680 WAT       -38.6820  -69.4160   -9.8330 O         1 <0>         0.0000
   2681 WAT       -38.6820  -69.4160   -9.5830 O         1 <0>         0.0000
   2682 WAT       -38.6820  -69.4160   -9.3330 O         1 <0>         0.0000
   2683 WAT       -38.6820  -69.4160   -9.0830 O         1 <0>         0.0000
   2684 WAT       -38.6820  -69.4160   -8.8330 O         1 <0>         0.0000
   2685 WAT       -38.6820  -69.4160   -8.5830 O         1 <0>         0.0000
   2686 WAT       -38.6820  -69.4160   -8.3330 O         1 <0>         0.0000
   2687 WAT       -38.6820  -69.4160   -8.0830 O         1 <0>         0.0000
   2688 WAT       -38.6820  -69.4160   -7.8330 O         1 <0>         0.0000
   2689 WAT       -38.6820  -69.4160   -7.5830 O         1 <0>         0.0000
   2690 WAT       -38.6820  -69.4160   -7.3330 O         1 <0>         0.0000
   2691 WAT       -38.6820  -69.4160   -7.0830 O         1 <0>         0.0000
   2692 WAT       -38.6820  -69.4160   -6.8330 O         1 <0>         0.0000
   2693 WAT       -38.6820  -69.4160   -6.5830 O         1 <0>         0.0000
   2694 WAT       -38.6820  -69.4160   -6.3330 O         1 <0>         0.0000
   2695 WAT       -38.6820  -69.4160   -6.0830 O         1 <0>         0.0000
   2696 WAT       -38.6820  -69.4160   -5.8330 O         1 <0>         0.0000
   2697 WAT       -38.6820  -69.4160   -5.5830 O         1 <0>         0.0000
   2698 WAT       -38.6820  -69.4160   -5.3330 O         1 <0>         0.0000
   2699 WAT       -38.6820  -69.4160   -5.0830 O         1 <0>         0.0000
   2700 WAT       -38.6820  -69.4160   -4.8330 O         1 <0>         0.0000
   2701 WAT       -38.6820  -69.4160   -4.5830 O         1 <0>         0.0000
   2702 WAT       -38.6820  -69.4160   -4.3330 O         1 <0>         0.0000
   2703 WAT       -38.6820  -69.4160   -4.0830 O         1 <0>         0.0000
   2704 WAT       -38.6820  -69.4160   -3.8330 O         1 <0>         0.0000
   2705 WAT       -38.6820  -69.4160   -3.5830 O         1 <0>         0.0000
   2706 WAT       -38.6820  -69.4160   -3.3330 O         1 <0>         0.0000
   2707 WAT       -38.6820  -69.4160   -3.0830 O         1 <0>         0.0000
   2708 WAT       -38.6820  -69.4160   -2.8330 O         1 <0>         0.0000
   2709 WAT       -38.6820  -69.4160   -2.5830 O         1 <0>         0.0000
   2710 WAT       -38.6820  -69.4160   -2.3330 O         1 <0>         0.0000
   2711 WAT       -38.6820  -69.4160   -2.0830 O         1 <0>         0.0000
   2712 WAT       -38.6820  -69.4160   -1.8330 O         1 <0>         0.0000
   2713 WAT       -38.6820  -69.4160   -1.5830 O         1 <0>         0.0000
   2714 WAT       -38.6820  -69.4160   -1.3330 O         1 <0>         0.0000
   2715 WAT       -38.6820  -69.4160   -1.0830 O         1 <0>         0.0000
   2716 WAT       -38.6820  -69.4160   -0.8330 O         1 <0>         0.0000
   2717 WAT       -38.6820  -69.4160   -0.5830 O         1 <0>         0.0000
   2718 WAT       -38.6820  -69.4160   -0.3330 O         1 <0>         0.0000
   2719 WAT       -38.6820  -69.4160   -0.0830 O         1 <0>         0.0000
   2720 WAT       -38.6820  -69.1660   -9.8330 O         1 <0>         0.0000
   2721 WAT       -38.6820  -69.1660   -9.5830 O         1 <0>         0.0000
   2722 WAT       -38.6820  -69.1660   -9.3330 O         1 <0>         0.0000
   2723 WAT       -38.6820  -69.1660   -9.0830 O         1 <0>         0.0000
   2724 WAT       -38.6820  -69.1660   -8.8330 O         1 <0>         0.0000
   2725 WAT       -38.6820  -69.1660   -8.5830 O         1 <0>         0.0000
   2726 WAT       -38.6820  -69.1660   -8.3330 O         1 <0>         0.0000
   2727 WAT       -38.6820  -69.1660   -8.0830 O         1 <0>         0.0000
   2728 WAT       -38.6820  -69.1660   -7.8330 O         1 <0>         0.0000
   2729 WAT       -38.6820  -69.1660   -7.5830 O         1 <0>         0.0000
   2730 WAT       -38.6820  -69.1660   -7.3330 O         1 <0>         0.0000
   2731 WAT       -38.6820  -69.1660   -7.0830 O         1 <0>         0.0000
   2732 WAT       -38.6820  -69.1660   -6.8330 O         1 <0>         0.0000
   2733 WAT       -38.6820  -69.1660   -6.5830 O         1 <0>         0.0000
   2734 WAT       -38.6820  -69.1660   -6.3330 O         1 <0>         0.0000
   2735 WAT       -38.6820  -69.1660   -6.0830 O         1 <0>         0.0000
   2736 WAT       -38.6820  -69.1660   -5.8330 O         1 <0>         0.0000
   2737 WAT       -38.6820  -69.1660   -5.5830 O         1 <0>         0.0000
   2738 WAT       -38.6820  -69.1660   -5.3330 O         1 <0>         0.0000
   2739 WAT       -38.6820  -69.1660   -5.0830 O         1 <0>         0.0000
   2740 WAT       -38.6820  -69.1660   -4.8330 O         1 <0>         0.0000
   2741 WAT       -38.6820  -69.1660   -4.5830 O         1 <0>         0.0000
   2742 WAT       -38.6820  -69.1660   -4.3330 O         1 <0>         0.0000
   2743 WAT       -38.6820  -69.1660   -4.0830 O         1 <0>         0.0000
   2744 WAT       -38.6820  -69.1660   -3.8330 O         1 <0>         0.0000
   2745 WAT       -38.6820  -69.1660   -3.5830 O         1 <0>         0.0000
   2746 WAT       -38.6820  -69.1660   -3.3330 O         1 <0>         0.0000
   2747 WAT       -38.6820  -69.1660   -3.0830 O         1 <0>         0.0000
   2748 WAT       -38.6820  -69.1660   -2.8330 O         1 <0>         0.0000
   2749 WAT       -38.6820  -69.1660   -2.5830 O         1 <0>         0.0000
   2750 WAT       -38.6820  -69.1660   -2.3330 O         1 <0>         0.0000
   2751 WAT       -38.6820  -69.1660   -2.0830 O         1 <0>         0.0000
   2752 WAT       -38.6820  -69.1660   -1.8330 O         1 <0>         0.0000
   2753 WAT       -38.6820  -69.1660   -1.5830 O         1 <0>         0.0000
   2754 WAT       -38.6820  -69.1660   -1.3330 O         1 <0>         0.0000
   2755 WAT       -38.6820  -69.1660   -1.0830 O         1 <0>         0.0000
   2756 WAT       -38.6820  -69.1660   -0.8330 O         1 <0>         0.0000
   2757 WAT       -38.6820  -69.1660   -0.5830 O         1 <0>         0.0000
   2758 WAT       -38.6820  -69.1660   -0.3330 O         1 <0>         0.0000
   2759 WAT       -38.6820  -69.1660   -0.0830 O         1 <0>         0.0000
   2760 WAT       -38.6820  -68.9160   -9.8330 O         1 <0>         0.0000
   2761 WAT       -38.6820  -68.9160   -9.5830 O         1 <0>         0.0000
   2762 WAT       -38.6820  -68.9160   -9.3330 O         1 <0>         0.0000
   2763 WAT       -38.6820  -68.9160   -9.0830 O         1 <0>         0.0000
   2764 WAT       -38.6820  -68.9160   -8.8330 O         1 <0>         0.0000
   2765 WAT       -38.6820  -68.9160   -8.5830 O         1 <0>         0.0000
   2766 WAT       -38.6820  -68.9160   -8.3330 O         1 <0>         0.0000
   2767 WAT       -38.6820  -68.9160   -8.0830 O         1 <0>         0.0000
   2768 WAT       -38.6820  -68.9160   -7.8330 O         1 <0>         0.0000
   2769 WAT       -38.6820  -68.9160   -7.5830 O         1 <0>         0.0000
   2770 WAT       -38.6820  -68.9160   -7.3330 O         1 <0>         0.0000
   2771 WAT       -38.6820  -68.9160   -7.0830 O         1 <0>         0.0000
   2772 WAT       -38.6820  -68.9160   -6.8330 O         1 <0>         0.0000
   2773 WAT       -38.6820  -68.9160   -6.5830 O         1 <0>         0.0000
   2774 WAT       -38.6820  -68.9160   -6.3330 O         1 <0>         0.0000
   2775 WAT       -38.6820  -68.9160   -6.0830 O         1 <0>         0.0000
   2776 WAT       -38.6820  -68.9160   -5.8330 O         1 <0>         0.0000
   2777 WAT       -38.6820  -68.9160   -5.5830 O         1 <0>         0.0000
   2778 WAT       -38.6820  -68.9160   -5.3330 O         1 <0>         0.0000
   2779 WAT       -38.6820  -68.9160   -5.0830 O         1 <0>         0.0000
   2780 WAT       -38.6820  -68.9160   -4.8330 O         1 <0>         0.0000
   2781 WAT       -38.6820  -68.9160   -4.5830 O         1 <0>         0.0000
   2782 WAT       -38.6820  -68.9160   -4.3330 O         1 <0>         0.0000
   2783 WAT       -38.6820  -68.9160   -4.0830 O         1 <0>         0.0000
   2784 WAT       -38.6820  -68.9160   -3.8330 O         1 <0>         0.0000
   2785 WAT       -38.6820  -68.9160   -3.5830 O         1 <0>         0.0000
   2786 WAT       -38.6820  -68.9160   -3.3330 O         1 <0>         0.0000
   2787 WAT       -38.6820  -68.9160   -3.0830 O         1 <0>         0.0000
   2788 WAT       -38.6820  -68.9160   -2.8330 O         1 <0>         0.0000
   2789 WAT       -38.6820  -68.9160   -2.5830 O         1 <0>         0.0000
   2790 WAT       -38.6820  -68.9160   -2.3330 O         1 <0>         0.0000
   2791 WAT       -38.6820  -68.9160   -2.0830 O         1 <0>         0.0000
   2792 WAT       -38.6820  -68.9160   -1.8330 O         1 <0>         0.0000
   2793 WAT       -38.6820  -68.9160   -1.5830 O         1 <0>         0.0000
   2794 WAT       -38.6820  -68.9160   -1.3330 O         1 <0>         0.0000
   2795 WAT       -38.6820  -68.9160   -1.0830 O         1 <0>         0.0000
   2796 WAT       -38.6820  -68.9160   -0.8330 O         1 <0>         0.0000
   2797 WAT       -38.6820  -68.9160   -0.5830 O         1 <0>         0.0000
   2798 WAT       -38.6820  -68.9160   -0.3330 O         1 <0>         0.0000
   2799 WAT       -38.6820  -68.9160   -0.0830 O         1 <0>         0.0000
   2800 WAT       -38.4320  -77.4160   -9.8330 O         1 <0>         0.0000
   2801 WAT       -38.4320  -77.4160   -9.5830 O         1 <0>         0.0000
   2802 WAT       -38.4320  -77.4160   -9.3330 O         1 <0>         0.0000
   2803 WAT       -38.4320  -77.4160   -9.0830 O         1 <0>         0.0000
   2804 WAT       -38.4320  -77.4160   -8.8330 O         1 <0>         0.0000
   2805 WAT       -38.4320  -77.4160   -8.5830 O         1 <0>         0.0000
   2806 WAT       -38.4320  -77.4160   -8.3330 O         1 <0>         0.0000
   2807 WAT       -38.4320  -77.4160   -8.0830 O         1 <0>         0.0000
   2808 WAT       -38.4320  -77.4160   -7.8330 O         1 <0>         0.0000
   2809 WAT       -38.4320  -77.4160   -7.5830 O         1 <0>         0.0000
   2810 WAT       -38.4320  -77.4160   -7.3330 O         1 <0>         0.0000
   2811 WAT       -38.4320  -77.4160   -7.0830 O         1 <0>         0.0000
   2812 WAT       -38.4320  -77.4160   -6.8330 O         1 <0>         0.0000
   2813 WAT       -38.4320  -77.4160   -6.5830 O         1 <0>         0.0000
   2814 WAT       -38.4320  -77.4160   -6.3330 O         1 <0>         0.0000
   2815 WAT       -38.4320  -77.4160   -6.0830 O         1 <0>         0.0000
   2816 WAT       -38.4320  -77.4160   -5.8330 O         1 <0>         0.0000
   2817 WAT       -38.4320  -77.4160   -5.5830 O         1 <0>         0.0000
   2818 WAT       -38.4320  -77.4160   -5.3330 O         1 <0>         0.0000
   2819 WAT       -38.4320  -77.4160   -5.0830 O         1 <0>         0.0000
   2820 WAT       -38.4320  -77.4160   -4.8330 O         1 <0>         0.0000
   2821 WAT       -38.4320  -77.4160   -4.5830 O         1 <0>         0.0000
   2822 WAT       -38.4320  -77.4160   -4.3330 O         1 <0>         0.0000
   2823 WAT       -38.4320  -77.4160   -4.0830 O         1 <0>         0.0000
   2824 WAT       -38.4320  -77.4160   -3.8330 O         1 <0>         0.0000
   2825 WAT       -38.4320  -77.4160   -3.5830 O         1 <0>         0.0000
   2826 WAT       -38.4320  -77.4160   -3.3330 O         1 <0>         0.0000
   2827 WAT       -38.4320  -77.4160   -3.0830 O         1 <0>         0.0000
   2828 WAT       -38.4320  -77.4160   -2.8330 O         1 <0>         0.0000
   2829 WAT       -38.4320  -77.4160   -2.5830 O         1 <0>         0.0000
   2830 WAT       -38.4320  -77.4160   -2.3330 O         1 <0>         0.0000
   2831 WAT       -38.4320  -77.4160   -2.0830 O         1 <0>         0.0000
   2832 WAT       -38.4320  -77.4160   -1.8330 O         1 <0>         0.0000
   2833 WAT       -38.4320  -77.4160   -1.5830 O         1 <0>         0.0000
   2834 WAT       -38.4320  -77.4160   -1.3330 O         1 <0>         0.0000
   2835 WAT       -38.4320  -77.4160   -1.0830 O         1 <0>         0.0000
   2836 WAT       -38.4320  -77.4160   -0.8330 O         1 <0>         0.0000
   2837 WAT       -38.4320  -77.4160   -0.5830 O         1 <0>         0.0000
   2838 WAT       -38.4320  -77.4160   -0.3330 O         1 <0>         0.0000
   2839 WAT       -38.4320  -77.4160   -0.0830 O         1 <0>         0.0000
   2840 WAT       -38.4320  -77.1660   -9.8330 O         1 <0>         0.0000
   2841 WAT       -38.4320  -77.1660   -9.5830 O         1 <0>         0.0000
   2842 WAT       -38.4320  -77.1660   -9.3330 O         1 <0>         0.0000
   2843 WAT       -38.4320  -77.1660   -9.0830 O         1 <0>         0.0000
   2844 WAT       -38.4320  -77.1660   -8.8330 O         1 <0>         0.0000
   2845 WAT       -38.4320  -77.1660   -8.5830 O         1 <0>         0.0000
   2846 WAT       -38.4320  -77.1660   -8.3330 O         1 <0>         0.0000
   2847 WAT       -38.4320  -77.1660   -8.0830 O         1 <0>         0.0000
   2848 WAT       -38.4320  -77.1660   -7.8330 O         1 <0>         0.0000
   2849 WAT       -38.4320  -77.1660   -7.5830 O         1 <0>         0.0000
   2850 WAT       -38.4320  -77.1660   -7.3330 O         1 <0>         0.0000
   2851 WAT       -38.4320  -77.1660   -7.0830 O         1 <0>         0.0000
   2852 WAT       -38.4320  -77.1660   -6.8330 O         1 <0>         0.0000
   2853 WAT       -38.4320  -77.1660   -6.5830 O         1 <0>         0.0000
   2854 WAT       -38.4320  -77.1660   -6.3330 O         1 <0>         0.0000
   2855 WAT       -38.4320  -77.1660   -6.0830 O         1 <0>         0.0000
   2856 WAT       -38.4320  -77.1660   -5.8330 O         1 <0>         0.0000
   2857 WAT       -38.4320  -77.1660   -5.5830 O         1 <0>         0.0000
   2858 WAT       -38.4320  -77.1660   -5.3330 O         1 <0>         0.0000
   2859 WAT       -38.4320  -77.1660   -5.0830 O         1 <0>         0.0000
   2860 WAT       -38.4320  -77.1660   -4.8330 O         1 <0>         0.0000
   2861 WAT       -38.4320  -77.1660   -4.5830 O         1 <0>         0.0000
   2862 WAT       -38.4320  -77.1660   -4.3330 O         1 <0>         0.0000
   2863 WAT       -38.4320  -77.1660   -4.0830 O         1 <0>         0.0000
   2864 WAT       -38.4320  -77.1660   -3.8330 O         1 <0>         0.0000
   2865 WAT       -38.4320  -77.1660   -3.5830 O         1 <0>         0.0000
   2866 WAT       -38.4320  -77.1660   -3.3330 O         1 <0>         0.0000
   2867 WAT       -38.4320  -77.1660   -3.0830 O         1 <0>         0.0000
   2868 WAT       -38.4320  -77.1660   -2.8330 O         1 <0>         0.0000
   2869 WAT       -38.4320  -77.1660   -2.5830 O         1 <0>         0.0000
   2870 WAT       -38.4320  -77.1660   -2.3330 O         1 <0>         0.0000
   2871 WAT       -38.4320  -77.1660   -2.0830 O         1 <0>         0.0000
   2872 WAT       -38.4320  -77.1660   -1.8330 O         1 <0>         0.0000
   2873 WAT       -38.4320  -77.1660   -1.5830 O         1 <0>         0.0000
   2874 WAT       -38.4320  -77.1660   -1.3330 O         1 <0>         0.0000
   2875 WAT       -38.4320  -77.1660   -1.0830 O         1 <0>         0.0000
   2876 WAT       -38.4320  -77.1660   -0.8330 O         1 <0>         0.0000
   2877 WAT       -38.4320  -77.1660   -0.5830 O         1 <0>         0.0000
   2878 WAT       -38.4320  -77.1660   -0.3330 O         1 <0>         0.0000
   2879 WAT       -38.4320  -77.1660   -0.0830 O         1 <0>         0.0000
   2880 WAT       -38.4320  -76.9160   -9.8330 O         1 <0>         0.0000
   2881 WAT       -38.4320  -76.9160   -9.5830 O         1 <0>         0.0000
   2882 WAT       -38.4320  -76.9160   -9.3330 O         1 <0>         0.0000
   2883 WAT       -38.4320  -76.9160   -9.0830 O         1 <0>         0.0000
   2884 WAT       -38.4320  -76.9160   -8.8330 O         1 <0>         0.0000
   2885 WAT       -38.4320  -76.9160   -8.5830 O         1 <0>         0.0000
   2886 WAT       -38.4320  -76.9160   -8.3330 O         1 <0>         0.0000
   2887 WAT       -38.4320  -76.9160   -8.0830 O         1 <0>         0.0000
   2888 WAT       -38.4320  -76.9160   -7.8330 O         1 <0>         0.0000
   2889 WAT       -38.4320  -76.9160   -7.5830 O         1 <0>         0.0000
   2890 WAT       -38.4320  -76.9160   -7.3330 O         1 <0>         0.0000
   2891 WAT       -38.4320  -76.9160   -7.0830 O         1 <0>         0.0000
   2892 WAT       -38.4320  -76.9160   -6.8330 O         1 <0>         0.0000
   2893 WAT       -38.4320  -76.9160   -6.5830 O         1 <0>         0.0000
   2894 WAT       -38.4320  -76.9160   -6.3330 O         1 <0>         0.0000
   2895 WAT       -38.4320  -76.9160   -6.0830 O         1 <0>         0.0000
   2896 WAT       -38.4320  -76.9160   -5.8330 O         1 <0>         0.0000
   2897 WAT       -38.4320  -76.9160   -5.5830 O         1 <0>         0.0000
   2898 WAT       -38.4320  -76.9160   -5.3330 O         1 <0>         0.0000
   2899 WAT       -38.4320  -76.9160   -5.0830 O         1 <0>         0.0000
   2900 WAT       -38.4320  -76.9160   -4.8330 O         1 <0>         0.0000
   2901 WAT       -38.4320  -76.9160   -4.5830 O         1 <0>         0.0000
   2902 WAT       -38.4320  -76.9160   -4.3330 O         1 <0>         0.0000
   2903 WAT       -38.4320  -76.9160   -4.0830 O         1 <0>         0.0000
   2904 WAT       -38.4320  -76.9160   -3.8330 O         1 <0>         0.0000
   2905 WAT       -38.4320  -76.9160   -3.5830 O         1 <0>         0.0000
   2906 WAT       -38.4320  -76.9160   -3.3330 O         1 <0>         0.0000
   2907 WAT       -38.4320  -76.9160   -3.0830 O         1 <0>         0.0000
   2908 WAT       -38.4320  -76.9160   -2.8330 O         1 <0>         0.0000
   2909 WAT       -38.4320  -76.9160   -2.5830 O         1 <0>         0.0000
   2910 WAT       -38.4320  -76.9160   -2.3330 O         1 <0>         0.0000
   2911 WAT       -38.4320  -76.9160   -2.0830 O         1 <0>         0.0000
   2912 WAT       -38.4320  -76.9160   -1.8330 O         1 <0>         0.0000
   2913 WAT       -38.4320  -76.9160   -1.5830 O         1 <0>         0.0000
   2914 WAT       -38.4320  -76.9160   -1.3330 O         1 <0>         0.0000
   2915 WAT       -38.4320  -76.9160   -1.0830 O         1 <0>         0.0000
   2916 WAT       -38.4320  -76.9160   -0.8330 O         1 <0>         0.0000
   2917 WAT       -38.4320  -76.9160   -0.5830 O         1 <0>         0.0000
   2918 WAT       -38.4320  -76.9160   -0.3330 O         1 <0>         0.0000
   2919 WAT       -38.4320  -76.9160   -0.0830 O         1 <0>         0.0000
   2920 WAT       -38.4320  -76.6660   -9.8330 O         1 <0>         0.0000
   2921 WAT       -38.4320  -76.6660   -9.5830 O         1 <0>         0.0000
   2922 WAT       -38.4320  -76.6660   -9.3330 O         1 <0>         0.0000
   2923 WAT       -38.4320  -76.6660   -9.0830 O         1 <0>         0.0000
   2924 WAT       -38.4320  -76.6660   -8.8330 O         1 <0>         0.0000
   2925 WAT       -38.4320  -76.6660   -8.5830 O         1 <0>         0.0000
   2926 WAT       -38.4320  -76.6660   -8.3330 O         1 <0>         0.0000
   2927 WAT       -38.4320  -76.6660   -8.0830 O         1 <0>         0.0000
   2928 WAT       -38.4320  -76.6660   -7.8330 O         1 <0>         0.0000
   2929 WAT       -38.4320  -76.6660   -7.5830 O         1 <0>         0.0000
   2930 WAT       -38.4320  -76.6660   -7.3330 O         1 <0>         0.0000
   2931 WAT       -38.4320  -76.6660   -7.0830 O         1 <0>         0.0000
   2932 WAT       -38.4320  -76.6660   -6.8330 O         1 <0>         0.0000
   2933 WAT       -38.4320  -76.6660   -6.5830 O         1 <0>         0.0000
   2934 WAT       -38.4320  -76.6660   -6.3330 O         1 <0>         0.0000
   2935 WAT       -38.4320  -76.6660   -6.0830 O         1 <0>         0.0000
   2936 WAT       -38.4320  -76.6660   -5.8330 O         1 <0>         0.0000
   2937 WAT       -38.4320  -76.6660   -5.5830 O         1 <0>         0.0000
   2938 WAT       -38.4320  -76.6660   -5.3330 O         1 <0>         0.0000
   2939 WAT       -38.4320  -76.6660   -5.0830 O         1 <0>         0.0000
   2940 WAT       -38.4320  -76.6660   -4.8330 O         1 <0>         0.0000
   2941 WAT       -38.4320  -76.6660   -4.5830 O         1 <0>         0.0000
   2942 WAT       -38.4320  -76.6660   -4.3330 O         1 <0>         0.0000
   2943 WAT       -38.4320  -76.6660   -4.0830 O         1 <0>         0.0000
   2944 WAT       -38.4320  -76.6660   -3.8330 O         1 <0>         0.0000
   2945 WAT       -38.4320  -76.6660   -3.5830 O         1 <0>         0.0000
   2946 WAT       -38.4320  -76.6660   -3.3330 O         1 <0>         0.0000
   2947 WAT       -38.4320  -76.6660   -3.0830 O         1 <0>         0.0000
   2948 WAT       -38.4320  -76.6660   -2.8330 O         1 <0>         0.0000
   2949 WAT       -38.4320  -76.6660   -2.5830 O         1 <0>         0.0000
   2950 WAT       -38.4320  -76.6660   -2.3330 O         1 <0>         0.0000
   2951 WAT       -38.4320  -76.6660   -2.0830 O         1 <0>         0.0000
   2952 WAT       -38.4320  -76.6660   -1.8330 O         1 <0>         0.0000
   2953 WAT       -38.4320  -76.6660   -1.5830 O         1 <0>         0.0000
   2954 WAT       -38.4320  -76.6660   -1.3330 O         1 <0>         0.0000
   2955 WAT       -38.4320  -76.6660   -1.0830 O         1 <0>         0.0000
   2956 WAT       -38.4320  -76.6660   -0.8330 O         1 <0>         0.0000
   2957 WAT       -38.4320  -76.6660   -0.5830 O         1 <0>         0.0000
   2958 WAT       -38.4320  -76.6660   -0.3330 O         1 <0>         0.0000
   2959 WAT       -38.4320  -76.6660   -0.0830 O         1 <0>         0.0000
   2960 WAT       -38.4320  -76.4160   -9.8330 O         1 <0>         0.0000
   2961 WAT       -38.4320  -76.4160   -9.5830 O         1 <0>         0.0000
   2962 WAT       -38.4320  -76.4160   -9.3330 O         1 <0>         0.0000
   2963 WAT       -38.4320  -76.4160   -9.0830 O         1 <0>         0.0000
   2964 WAT       -38.4320  -76.4160   -8.8330 O         1 <0>         0.0000
   2965 WAT       -38.4320  -76.4160   -8.5830 O         1 <0>         0.0000
   2966 WAT       -38.4320  -76.4160   -8.3330 O         1 <0>         0.0000
   2967 WAT       -38.4320  -76.4160   -8.0830 O         1 <0>         0.0000
   2968 WAT       -38.4320  -76.4160   -7.8330 O         1 <0>         0.0000
   2969 WAT       -38.4320  -76.4160   -7.5830 O         1 <0>         0.0000
   2970 WAT       -38.4320  -76.4160   -7.3330 O         1 <0>         0.0000
   2971 WAT       -38.4320  -76.4160   -7.0830 O         1 <0>         0.0000
   2972 WAT       -38.4320  -76.4160   -6.8330 O         1 <0>         0.0000
   2973 WAT       -38.4320  -76.4160   -6.5830 O         1 <0>         0.0000
   2974 WAT       -38.4320  -76.4160   -6.3330 O         1 <0>         0.0000
   2975 WAT       -38.4320  -76.4160   -6.0830 O         1 <0>         0.0000
   2976 WAT       -38.4320  -76.4160   -5.8330 O         1 <0>         0.0000
   2977 WAT       -38.4320  -76.4160   -5.5830 O         1 <0>         0.0000
   2978 WAT       -38.4320  -76.4160   -5.3330 O         1 <0>         0.0000
   2979 WAT       -38.4320  -76.4160   -5.0830 O         1 <0>         0.0000
   2980 WAT       -38.4320  -76.4160   -4.8330 O         1 <0>         0.0000
   2981 WAT       -38.4320  -76.4160   -4.5830 O         1 <0>         0.0000
   2982 WAT       -38.4320  -76.4160   -4.3330 O         1 <0>         0.0000
   2983 WAT       -38.4320  -76.4160   -4.0830 O         1 <0>         0.0000
   2984 WAT       -38.4320  -76.4160   -3.8330 O         1 <0>         0.0000
   2985 WAT       -38.4320  -76.4160   -3.5830 O         1 <0>         0.0000
   2986 WAT       -38.4320  -76.4160   -3.3330 O         1 <0>         0.0000
   2987 WAT       -38.4320  -76.4160   -3.0830 O         1 <0>         0.0000
   2988 WAT       -38.4320  -76.4160   -2.8330 O         1 <0>         0.0000
   2989 WAT       -38.4320  -76.4160   -2.5830 O         1 <0>         0.0000
   2990 WAT       -38.4320  -76.4160   -2.3330 O         1 <0>         0.0000
   2991 WAT       -38.4320  -76.4160   -2.0830 O         1 <0>         0.0000
   2992 WAT       -38.4320  -76.4160   -1.8330 O         1 <0>         0.0000
   2993 WAT       -38.4320  -76.4160   -1.5830 O         1 <0>         0.0000
   2994 WAT       -38.4320  -76.4160   -1.3330 O         1 <0>         0.0000
   2995 WAT       -38.4320  -76.4160   -1.0830 O         1 <0>         0.0000
   2996 WAT       -38.4320  -76.4160   -0.8330 O         1 <0>         0.0000
   2997 WAT       -38.4320  -76.4160   -0.5830 O         1 <0>         0.0000
   2998 WAT       -38.4320  -76.4160   -0.3330 O         1 <0>         0.0000
   2999 WAT       -38.4320  -76.4160   -0.0830 O         1 <0>         0.0000
   3000 WAT       -38.4320  -76.1660   -9.8330 O         1 <0>         0.0000
   3001 WAT       -38.4320  -76.1660   -9.5830 O         1 <0>         0.0000
   3002 WAT       -38.4320  -76.1660   -9.3330 O         1 <0>         0.0000
   3003 WAT       -38.4320  -76.1660   -9.0830 O         1 <0>         0.0000
   3004 WAT       -38.4320  -76.1660   -8.8330 O         1 <0>         0.0000
   3005 WAT       -38.4320  -76.1660   -8.5830 O         1 <0>         0.0000
   3006 WAT       -38.4320  -76.1660   -8.3330 O         1 <0>         0.0000
   3007 WAT       -38.4320  -76.1660   -8.0830 O         1 <0>         0.0000
   3008 WAT       -38.4320  -76.1660   -7.8330 O         1 <0>         0.0000
   3009 WAT       -38.4320  -76.1660   -7.5830 O         1 <0>         0.0000
   3010 WAT       -38.4320  -76.1660   -7.3330 O         1 <0>         0.0000
   3011 WAT       -38.4320  -76.1660   -7.0830 O         1 <0>         0.0000
   3012 WAT       -38.4320  -76.1660   -6.8330 O         1 <0>         0.0000
   3013 WAT       -38.4320  -76.1660   -6.5830 O         1 <0>         0.0000
   3014 WAT       -38.4320  -76.1660   -6.3330 O         1 <0>         0.0000
   3015 WAT       -38.4320  -76.1660   -6.0830 O         1 <0>         0.0000
   3016 WAT       -38.4320  -76.1660   -5.8330 O         1 <0>         0.0000
   3017 WAT       -38.4320  -76.1660   -5.5830 O         1 <0>         0.0000
   3018 WAT       -38.4320  -76.1660   -5.3330 O         1 <0>         0.0000
   3019 WAT       -38.4320  -76.1660   -5.0830 O         1 <0>         0.0000
   3020 WAT       -38.4320  -76.1660   -4.8330 O         1 <0>         0.0000
   3021 WAT       -38.4320  -76.1660   -4.5830 O         1 <0>         0.0000
   3022 WAT       -38.4320  -76.1660   -4.3330 O         1 <0>         0.0000
   3023 WAT       -38.4320  -76.1660   -4.0830 O         1 <0>         0.0000
   3024 WAT       -38.4320  -76.1660   -3.8330 O         1 <0>         0.0000
   3025 WAT       -38.4320  -76.1660   -3.5830 O         1 <0>         0.0000
   3026 WAT       -38.4320  -76.1660   -3.3330 O         1 <0>         0.0000
   3027 WAT       -38.4320  -76.1660   -3.0830 O         1 <0>         0.0000
   3028 WAT       -38.4320  -76.1660   -2.8330 O         1 <0>         0.0000
   3029 WAT       -38.4320  -76.1660   -2.5830 O         1 <0>         0.0000
   3030 WAT       -38.4320  -76.1660   -2.3330 O         1 <0>         0.0000
   3031 WAT       -38.4320  -76.1660   -2.0830 O         1 <0>         0.0000
   3032 WAT       -38.4320  -76.1660   -1.8330 O         1 <0>         0.0000
   3033 WAT       -38.4320  -76.1660   -1.5830 O         1 <0>         0.0000
   3034 WAT       -38.4320  -76.1660   -1.3330 O         1 <0>         0.0000
   3035 WAT       -38.4320  -76.1660   -1.0830 O         1 <0>         0.0000
   3036 WAT       -38.4320  -76.1660   -0.8330 O         1 <0>         0.0000
   3037 WAT       -38.4320  -76.1660   -0.5830 O         1 <0>         0.0000
   3038 WAT       -38.4320  -76.1660   -0.3330 O         1 <0>         0.0000
   3039 WAT       -38.4320  -76.1660   -0.0830 O         1 <0>         0.0000
   3040 WAT       -38.4320  -75.9160   -9.8330 O         1 <0>         0.0000
   3041 WAT       -38.4320  -75.9160   -9.5830 O         1 <0>         0.0000
   3042 WAT       -38.4320  -75.9160   -9.3330 O         1 <0>         0.0000
   3043 WAT       -38.4320  -75.9160   -9.0830 O         1 <0>         0.0000
   3044 WAT       -38.4320  -75.9160   -8.8330 O         1 <0>         0.0000
   3045 WAT       -38.4320  -75.9160   -8.5830 O         1 <0>         0.0000
   3046 WAT       -38.4320  -75.9160   -8.3330 O         1 <0>         0.0000
   3047 WAT       -38.4320  -75.9160   -8.0830 O         1 <0>         0.0000
   3048 WAT       -38.4320  -75.9160   -7.8330 O         1 <0>         0.0000
   3049 WAT       -38.4320  -75.9160   -7.5830 O         1 <0>         0.0000
   3050 WAT       -38.4320  -75.9160   -7.3330 O         1 <0>         0.0000
   3051 WAT       -38.4320  -75.9160   -7.0830 O         1 <0>         0.0000
   3052 WAT       -38.4320  -75.9160   -6.8330 O         1 <0>         0.0000
   3053 WAT       -38.4320  -75.9160   -6.5830 O         1 <0>         0.0000
   3054 WAT       -38.4320  -75.9160   -6.3330 O         1 <0>         0.0000
   3055 WAT       -38.4320  -75.9160   -6.0830 O         1 <0>         0.0000
   3056 WAT       -38.4320  -75.9160   -5.8330 O         1 <0>         0.0000
   3057 WAT       -38.4320  -75.9160   -5.5830 O         1 <0>         0.0000
   3058 WAT       -38.4320  -75.9160   -5.3330 O         1 <0>         0.0000
   3059 WAT       -38.4320  -75.9160   -5.0830 O         1 <0>         0.0000
   3060 WAT       -38.4320  -75.9160   -4.8330 O         1 <0>         0.0000
   3061 WAT       -38.4320  -75.9160   -4.5830 O         1 <0>         0.0000
   3062 WAT       -38.4320  -75.9160   -4.3330 O         1 <0>         0.0000
   3063 WAT       -38.4320  -75.9160   -4.0830 O         1 <0>         0.0000
   3064 WAT       -38.4320  -75.9160   -3.8330 O         1 <0>         0.0000
   3065 WAT       -38.4320  -75.9160   -3.5830 O         1 <0>         0.0000
   3066 WAT       -38.4320  -75.9160   -3.3330 O         1 <0>         0.0000
   3067 WAT       -38.4320  -75.9160   -3.0830 O         1 <0>         0.0000
   3068 WAT       -38.4320  -75.9160   -2.8330 O         1 <0>         0.0000
   3069 WAT       -38.4320  -75.9160   -2.5830 O         1 <0>         0.0000
   3070 WAT       -38.4320  -75.9160   -2.3330 O         1 <0>         0.0000
   3071 WAT       -38.4320  -75.9160   -2.0830 O         1 <0>         0.0000
   3072 WAT       -38.4320  -75.9160   -1.8330 O         1 <0>         0.0000
   3073 WAT       -38.4320  -75.9160   -1.5830 O         1 <0>         0.0000
   3074 WAT       -38.4320  -75.9160   -1.3330 O         1 <0>         0.0000
   3075 WAT       -38.4320  -75.9160   -1.0830 O         1 <0>         0.0000
   3076 WAT       -38.4320  -75.9160   -0.8330 O         1 <0>         0.0000
   3077 WAT       -38.4320  -75.9160   -0.5830 O         1 <0>         0.0000
   3078 WAT       -38.4320  -75.9160   -0.3330 O         1 <0>         0.0000
   3079 WAT       -38.4320  -75.9160   -0.0830 O         1 <0>         0.0000
   3080 WAT       -38.4320  -75.6660   -9.8330 O         1 <0>         0.0000
   3081 WAT       -38.4320  -75.6660   -9.5830 O         1 <0>         0.0000
   3082 WAT       -38.4320  -75.6660   -9.3330 O         1 <0>         0.0000
   3083 WAT       -38.4320  -75.6660   -9.0830 O         1 <0>         0.0000
   3084 WAT       -38.4320  -75.6660   -8.8330 O         1 <0>         0.0000
   3085 WAT       -38.4320  -75.6660   -8.5830 O         1 <0>         0.0000
   3086 WAT       -38.4320  -75.6660   -8.3330 O         1 <0>         0.0000
   3087 WAT       -38.4320  -75.6660   -8.0830 O         1 <0>         0.0000
   3088 WAT       -38.4320  -75.6660   -7.8330 O         1 <0>         0.0000
   3089 WAT       -38.4320  -75.6660   -7.5830 O         1 <0>         0.0000
   3090 WAT       -38.4320  -75.6660   -7.3330 O         1 <0>         0.0000
   3091 WAT       -38.4320  -75.6660   -7.0830 O         1 <0>         0.0000
   3092 WAT       -38.4320  -75.6660   -6.8330 O         1 <0>         0.0000
   3093 WAT       -38.4320  -75.6660   -6.5830 O         1 <0>         0.0000
   3094 WAT       -38.4320  -75.6660   -6.3330 O         1 <0>         0.0000
   3095 WAT       -38.4320  -75.6660   -6.0830 O         1 <0>         0.0000
   3096 WAT       -38.4320  -75.6660   -5.8330 O         1 <0>         0.0000
   3097 WAT       -38.4320  -75.6660   -5.5830 O         1 <0>         0.0000
   3098 WAT       -38.4320  -75.6660   -5.3330 O         1 <0>         0.0000
   3099 WAT       -38.4320  -75.6660   -5.0830 O         1 <0>         0.0000
   3100 WAT       -38.4320  -75.6660   -4.8330 O         1 <0>         0.0000
   3101 WAT       -38.4320  -75.6660   -4.5830 O         1 <0>         0.0000
   3102 WAT       -38.4320  -75.6660   -4.3330 O         1 <0>         0.0000
   3103 WAT       -38.4320  -75.6660   -4.0830 O         1 <0>         0.0000
   3104 WAT       -38.4320  -75.6660   -3.8330 O         1 <0>         0.0000
   3105 WAT       -38.4320  -75.6660   -3.5830 O         1 <0>         0.0000
   3106 WAT       -38.4320  -75.6660   -3.3330 O         1 <0>         0.0000
   3107 WAT       -38.4320  -75.6660   -3.0830 O         1 <0>         0.0000
   3108 WAT       -38.4320  -75.6660   -2.8330 O         1 <0>         0.0000
   3109 WAT       -38.4320  -75.6660   -2.5830 O         1 <0>         0.0000
   3110 WAT       -38.4320  -75.6660   -2.3330 O         1 <0>         0.0000
   3111 WAT       -38.4320  -75.6660   -2.0830 O         1 <0>         0.0000
   3112 WAT       -38.4320  -75.6660   -1.8330 O         1 <0>         0.0000
   3113 WAT       -38.4320  -75.6660   -1.5830 O         1 <0>         0.0000
   3114 WAT       -38.4320  -75.6660   -1.3330 O         1 <0>         0.0000
   3115 WAT       -38.4320  -75.6660   -1.0830 O         1 <0>         0.0000
   3116 WAT       -38.4320  -75.6660   -0.8330 O         1 <0>         0.0000
   3117 WAT       -38.4320  -75.6660   -0.5830 O         1 <0>         0.0000
   3118 WAT       -38.4320  -75.6660   -0.3330 O         1 <0>         0.0000
   3119 WAT       -38.4320  -75.6660   -0.0830 O         1 <0>         0.0000
   3120 WAT       -38.4320  -75.4160   -9.8330 O         1 <0>         0.0000
   3121 WAT       -38.4320  -75.4160   -9.5830 O         1 <0>         0.0000
   3122 WAT       -38.4320  -75.4160   -9.3330 O         1 <0>         0.0000
   3123 WAT       -38.4320  -75.4160   -9.0830 O         1 <0>         0.0000
   3124 WAT       -38.4320  -75.4160   -8.8330 O         1 <0>         0.0000
   3125 WAT       -38.4320  -75.4160   -8.5830 O         1 <0>         0.0000
   3126 WAT       -38.4320  -75.4160   -8.3330 O         1 <0>         0.0000
   3127 WAT       -38.4320  -75.4160   -8.0830 O         1 <0>         0.0000
   3128 WAT       -38.4320  -75.4160   -7.8330 O         1 <0>         0.0000
   3129 WAT       -38.4320  -75.4160   -7.5830 O         1 <0>         0.0000
   3130 WAT       -38.4320  -75.4160   -7.3330 O         1 <0>         0.0000
   3131 WAT       -38.4320  -75.4160   -7.0830 O         1 <0>         0.0000
   3132 WAT       -38.4320  -75.4160   -6.8330 O         1 <0>         0.0000
   3133 WAT       -38.4320  -75.4160   -6.5830 O         1 <0>         0.0000
   3134 WAT       -38.4320  -75.4160   -6.3330 O         1 <0>         0.0000
   3135 WAT       -38.4320  -75.4160   -6.0830 O         1 <0>         0.0000
   3136 WAT       -38.4320  -75.4160   -5.8330 O         1 <0>         0.0000
   3137 WAT       -38.4320  -75.4160   -5.5830 O         1 <0>         0.0000
   3138 WAT       -38.4320  -75.4160   -5.3330 O         1 <0>         0.0000
   3139 WAT       -38.4320  -75.4160   -5.0830 O         1 <0>         0.0000
   3140 WAT       -38.4320  -75.4160   -4.8330 O         1 <0>         0.0000
   3141 WAT       -38.4320  -75.4160   -4.5830 O         1 <0>         0.0000
   3142 WAT       -38.4320  -75.4160   -4.3330 O         1 <0>         0.0000
   3143 WAT       -38.4320  -75.4160   -4.0830 O         1 <0>         0.0000
   3144 WAT       -38.4320  -75.4160   -3.8330 O         1 <0>         0.0000
   3145 WAT       -38.4320  -75.4160   -3.5830 O         1 <0>         0.0000
   3146 WAT       -38.4320  -75.4160   -3.3330 O         1 <0>         0.0000
   3147 WAT       -38.4320  -75.4160   -3.0830 O         1 <0>         0.0000
   3148 WAT       -38.4320  -75.4160   -2.8330 O         1 <0>         0.0000
   3149 WAT       -38.4320  -75.4160   -2.5830 O         1 <0>         0.0000
   3150 WAT       -38.4320  -75.4160   -2.3330 O         1 <0>         0.0000
   3151 WAT       -38.4320  -75.4160   -2.0830 O         1 <0>         0.0000
   3152 WAT       -38.4320  -75.4160   -1.8330 O         1 <0>         0.0000
   3153 WAT       -38.4320  -75.4160   -1.5830 O         1 <0>         0.0000
   3154 WAT       -38.4320  -75.4160   -1.3330 O         1 <0>         0.0000
   3155 WAT       -38.4320  -75.4160   -1.0830 O         1 <0>         0.0000
   3156 WAT       -38.4320  -75.4160   -0.8330 O         1 <0>         0.0000
   3157 WAT       -38.4320  -75.4160   -0.5830 O         1 <0>         0.0000
   3158 WAT       -38.4320  -75.4160   -0.3330 O         1 <0>         0.0000
   3159 WAT       -38.4320  -75.4160   -0.0830 O         1 <0>         0.0000
   3160 WAT       -38.4320  -75.1660   -9.8330 O         1 <0>         0.0000
   3161 WAT       -38.4320  -75.1660   -9.5830 O         1 <0>         0.0000
   3162 WAT       -38.4320  -75.1660   -9.3330 O         1 <0>         0.0000
   3163 WAT       -38.4320  -75.1660   -9.0830 O         1 <0>         0.0000
   3164 WAT       -38.4320  -75.1660   -8.8330 O         1 <0>         0.0000
   3165 WAT       -38.4320  -75.1660   -8.5830 O         1 <0>         0.0000
   3166 WAT       -38.4320  -75.1660   -8.3330 O         1 <0>         0.0000
   3167 WAT       -38.4320  -75.1660   -8.0830 O         1 <0>         0.0000
   3168 WAT       -38.4320  -75.1660   -7.8330 O         1 <0>         0.0000
   3169 WAT       -38.4320  -75.1660   -7.5830 O         1 <0>         0.0000
   3170 WAT       -38.4320  -75.1660   -7.3330 O         1 <0>         0.0000
   3171 WAT       -38.4320  -75.1660   -7.0830 O         1 <0>         0.0000
   3172 WAT       -38.4320  -75.1660   -6.8330 O         1 <0>         0.0000
   3173 WAT       -38.4320  -75.1660   -6.5830 O         1 <0>         0.0000
   3174 WAT       -38.4320  -75.1660   -6.3330 O         1 <0>         0.0000
   3175 WAT       -38.4320  -75.1660   -6.0830 O         1 <0>         0.0000
   3176 WAT       -38.4320  -75.1660   -5.8330 O         1 <0>         0.0000
   3177 WAT       -38.4320  -75.1660   -5.5830 O         1 <0>         0.0000
   3178 WAT       -38.4320  -75.1660   -5.3330 O         1 <0>         0.0000
   3179 WAT       -38.4320  -75.1660   -5.0830 O         1 <0>         0.0000
   3180 WAT       -38.4320  -75.1660   -4.8330 O         1 <0>         0.0000
   3181 WAT       -38.4320  -75.1660   -4.5830 O         1 <0>         0.0000
   3182 WAT       -38.4320  -75.1660   -4.3330 O         1 <0>         0.0000
   3183 WAT       -38.4320  -75.1660   -4.0830 O         1 <0>         0.0000
   3184 WAT       -38.4320  -75.1660   -3.8330 O         1 <0>         0.0000
   3185 WAT       -38.4320  -75.1660   -3.5830 O         1 <0>         0.0000
   3186 WAT       -38.4320  -75.1660   -3.3330 O         1 <0>         0.0000
   3187 WAT       -38.4320  -75.1660   -3.0830 O         1 <0>         0.0000
   3188 WAT       -38.4320  -75.1660   -2.8330 O         1 <0>         0.0000
   3189 WAT       -38.4320  -75.1660   -2.5830 O         1 <0>         0.0000
   3190 WAT       -38.4320  -75.1660   -2.3330 O         1 <0>         0.0000
   3191 WAT       -38.4320  -75.1660   -2.0830 O         1 <0>         0.0000
   3192 WAT       -38.4320  -75.1660   -1.8330 O         1 <0>         0.0000
   3193 WAT       -38.4320  -75.1660   -1.5830 O         1 <0>         0.0000
   3194 WAT       -38.4320  -75.1660   -1.3330 O         1 <0>         0.0000
   3195 WAT       -38.4320  -75.1660   -1.0830 O         1 <0>         0.0000
   3196 WAT       -38.4320  -75.1660   -0.8330 O         1 <0>         0.0000
   3197 WAT       -38.4320  -75.1660   -0.5830 O         1 <0>         0.0000
   3198 WAT       -38.4320  -75.1660   -0.3330 O         1 <0>         0.0000
   3199 WAT       -38.4320  -75.1660   -0.0830 O         1 <0>         0.0000
   3200 WAT       -38.4320  -74.9160   -9.8330 O         1 <0>         0.0000
   3201 WAT       -38.4320  -74.9160   -9.5830 O         1 <0>         0.0000
   3202 WAT       -38.4320  -74.9160   -9.3330 O         1 <0>         0.0000
   3203 WAT       -38.4320  -74.9160   -9.0830 O         1 <0>         0.0000
   3204 WAT       -38.4320  -74.9160   -8.8330 O         1 <0>         0.0000
   3205 WAT       -38.4320  -74.9160   -8.5830 O         1 <0>         0.0000
   3206 WAT       -38.4320  -74.9160   -8.3330 O         1 <0>         0.0000
   3207 WAT       -38.4320  -74.9160   -8.0830 O         1 <0>         0.0000
   3208 WAT       -38.4320  -74.9160   -7.8330 O         1 <0>         0.0000
   3209 WAT       -38.4320  -74.9160   -7.5830 O         1 <0>         0.0000
   3210 WAT       -38.4320  -74.9160   -7.3330 O         1 <0>         0.0000
   3211 WAT       -38.4320  -74.9160   -7.0830 O         1 <0>         0.0000
   3212 WAT       -38.4320  -74.9160   -6.8330 O         1 <0>         0.0000
   3213 WAT       -38.4320  -74.9160   -6.5830 O         1 <0>         0.0000
   3214 WAT       -38.4320  -74.9160   -6.3330 O         1 <0>         0.0000
   3215 WAT       -38.4320  -74.9160   -6.0830 O         1 <0>         0.0000
   3216 WAT       -38.4320  -74.9160   -5.8330 O         1 <0>         0.0000
   3217 WAT       -38.4320  -74.9160   -5.5830 O         1 <0>         0.0000
   3218 WAT       -38.4320  -74.9160   -5.3330 O         1 <0>         0.0000
   3219 WAT       -38.4320  -74.9160   -5.0830 O         1 <0>         0.0000
   3220 WAT       -38.4320  -74.9160   -4.8330 O         1 <0>         0.0000
   3221 WAT       -38.4320  -74.9160   -4.5830 O         1 <0>         0.0000
   3222 WAT       -38.4320  -74.9160   -4.3330 O         1 <0>         0.0000
   3223 WAT       -38.4320  -74.9160   -4.0830 O         1 <0>         0.0000
   3224 WAT       -38.4320  -74.9160   -3.8330 O         1 <0>         0.0000
   3225 WAT       -38.4320  -74.9160   -3.5830 O         1 <0>         0.0000
   3226 WAT       -38.4320  -74.9160   -3.3330 O         1 <0>         0.0000
   3227 WAT       -38.4320  -74.9160   -3.0830 O         1 <0>         0.0000
   3228 WAT       -38.4320  -74.9160   -2.8330 O         1 <0>         0.0000
   3229 WAT       -38.4320  -74.9160   -2.5830 O         1 <0>         0.0000
   3230 WAT       -38.4320  -74.9160   -2.3330 O         1 <0>         0.0000
   3231 WAT       -38.4320  -74.9160   -2.0830 O         1 <0>         0.0000
   3232 WAT       -38.4320  -74.9160   -1.8330 O         1 <0>         0.0000
   3233 WAT       -38.4320  -74.9160   -1.5830 O         1 <0>         0.0000
   3234 WAT       -38.4320  -74.9160   -1.3330 O         1 <0>         0.0000
   3235 WAT       -38.4320  -74.9160   -1.0830 O         1 <0>         0.0000
   3236 WAT       -38.4320  -74.9160   -0.8330 O         1 <0>         0.0000
   3237 WAT       -38.4320  -74.9160   -0.5830 O         1 <0>         0.0000
   3238 WAT       -38.4320  -74.9160   -0.3330 O         1 <0>         0.0000
   3239 WAT       -38.4320  -74.9160   -0.0830 O         1 <0>         0.0000
   3240 WAT       -38.4320  -74.6660   -9.8330 O         1 <0>         0.0000
   3241 WAT       -38.4320  -74.6660   -9.5830 O         1 <0>         0.0000
   3242 WAT       -38.4320  -74.6660   -9.3330 O         1 <0>         0.0000
   3243 WAT       -38.4320  -74.6660   -9.0830 O         1 <0>         0.0000
   3244 WAT       -38.4320  -74.6660   -8.8330 O         1 <0>         0.0000
   3245 WAT       -38.4320  -74.6660   -8.5830 O         1 <0>         0.0000
   3246 WAT       -38.4320  -74.6660   -8.3330 O         1 <0>         0.0000
   3247 WAT       -38.4320  -74.6660   -8.0830 O         1 <0>         0.0000
   3248 WAT       -38.4320  -74.6660   -7.8330 O         1 <0>         0.0000
   3249 WAT       -38.4320  -74.6660   -7.5830 O         1 <0>         0.0000
   3250 WAT       -38.4320  -74.6660   -7.3330 O         1 <0>         0.0000
   3251 WAT       -38.4320  -74.6660   -7.0830 O         1 <0>         0.0000
   3252 WAT       -38.4320  -74.6660   -6.8330 O         1 <0>         0.0000
   3253 WAT       -38.4320  -74.6660   -6.5830 O         1 <0>         0.0000
   3254 WAT       -38.4320  -74.6660   -6.3330 O         1 <0>         0.0000
   3255 WAT       -38.4320  -74.6660   -6.0830 O         1 <0>         0.0000
   3256 WAT       -38.4320  -74.6660   -5.8330 O         1 <0>         0.0000
   3257 WAT       -38.4320  -74.6660   -5.5830 O         1 <0>         0.0000
   3258 WAT       -38.4320  -74.6660   -5.3330 O         1 <0>         0.0000
   3259 WAT       -38.4320  -74.6660   -5.0830 O         1 <0>         0.0000
   3260 WAT       -38.4320  -74.6660   -4.8330 O         1 <0>         0.0000
   3261 WAT       -38.4320  -74.6660   -4.5830 O         1 <0>         0.0000
   3262 WAT       -38.4320  -74.6660   -4.3330 O         1 <0>         0.0000
   3263 WAT       -38.4320  -74.6660   -4.0830 O         1 <0>         0.0000
   3264 WAT       -38.4320  -74.6660   -3.8330 O         1 <0>         0.0000
   3265 WAT       -38.4320  -74.6660   -3.5830 O         1 <0>         0.0000
   3266 WAT       -38.4320  -74.6660   -3.3330 O         1 <0>         0.0000
   3267 WAT       -38.4320  -74.6660   -3.0830 O         1 <0>         0.0000
   3268 WAT       -38.4320  -74.6660   -2.8330 O         1 <0>         0.0000
   3269 WAT       -38.4320  -74.6660   -2.5830 O         1 <0>         0.0000
   3270 WAT       -38.4320  -74.6660   -2.3330 O         1 <0>         0.0000
   3271 WAT       -38.4320  -74.6660   -2.0830 O         1 <0>         0.0000
   3272 WAT       -38.4320  -74.6660   -1.8330 O         1 <0>         0.0000
   3273 WAT       -38.4320  -74.6660   -1.5830 O         1 <0>         0.0000
   3274 WAT       -38.4320  -74.6660   -1.3330 O         1 <0>         0.0000
   3275 WAT       -38.4320  -74.6660   -1.0830 O         1 <0>         0.0000
   3276 WAT       -38.4320  -74.6660   -0.8330 O         1 <0>         0.0000
   3277 WAT       -38.4320  -74.6660   -0.5830 O         1 <0>         0.0000
   3278 WAT       -38.4320  -74.6660   -0.3330 O         1 <0>         0.0000
   3279 WAT       -38.4320  -74.6660   -0.0830 O         1 <0>         0.0000
   3280 WAT       -38.4320  -74.4160   -9.8330 O         1 <0>         0.0000
   3281 WAT       -38.4320  -74.4160   -9.5830 O         1 <0>         0.0000
   3282 WAT       -38.4320  -74.4160   -9.3330 O         1 <0>         0.0000
   3283 WAT       -38.4320  -74.4160   -9.0830 O         1 <0>         0.0000
   3284 WAT       -38.4320  -74.4160   -8.8330 O         1 <0>         0.0000
   3285 WAT       -38.4320  -74.4160   -8.5830 O         1 <0>         0.0000
   3286 WAT       -38.4320  -74.4160   -8.3330 O         1 <0>         0.0000
   3287 WAT       -38.4320  -74.4160   -8.0830 O         1 <0>         0.0000
   3288 WAT       -38.4320  -74.4160   -7.8330 O         1 <0>         0.0000
   3289 WAT       -38.4320  -74.4160   -7.5830 O         1 <0>         0.0000
   3290 WAT       -38.4320  -74.4160   -7.3330 O         1 <0>         0.0000
   3291 WAT       -38.4320  -74.4160   -7.0830 O         1 <0>         0.0000
   3292 WAT       -38.4320  -74.4160   -6.8330 O         1 <0>         0.0000
   3293 WAT       -38.4320  -74.4160   -6.5830 O         1 <0>         0.0000
   3294 WAT       -38.4320  -74.4160   -6.3330 O         1 <0>         0.0000
   3295 WAT       -38.4320  -74.4160   -6.0830 O         1 <0>         0.0000
   3296 WAT       -38.4320  -74.4160   -5.8330 O         1 <0>         0.0000
   3297 WAT       -38.4320  -74.4160   -5.5830 O         1 <0>         0.0000
   3298 WAT       -38.4320  -74.4160   -5.3330 O         1 <0>         0.0000
   3299 WAT       -38.4320  -74.4160   -5.0830 O         1 <0>         0.0000
   3300 WAT       -38.4320  -74.4160   -4.8330 O         1 <0>         0.0000
   3301 WAT       -38.4320  -74.4160   -4.5830 O         1 <0>         0.0000
   3302 WAT       -38.4320  -74.4160   -4.3330 O         1 <0>         0.0000
   3303 WAT       -38.4320  -74.4160   -4.0830 O         1 <0>         0.0000
   3304 WAT       -38.4320  -74.4160   -3.8330 O         1 <0>         0.0000
   3305 WAT       -38.4320  -74.4160   -3.5830 O         1 <0>         0.0000
   3306 WAT       -38.4320  -74.4160   -3.3330 O         1 <0>         0.0000
   3307 WAT       -38.4320  -74.4160   -3.0830 O         1 <0>         0.0000
   3308 WAT       -38.4320  -74.4160   -2.8330 O         1 <0>         0.0000
   3309 WAT       -38.4320  -74.4160   -2.5830 O         1 <0>         0.0000
   3310 WAT       -38.4320  -74.4160   -2.3330 O         1 <0>         0.0000
   3311 WAT       -38.4320  -74.4160   -2.0830 O         1 <0>         0.0000
   3312 WAT       -38.4320  -74.4160   -1.8330 O         1 <0>         0.0000
   3313 WAT       -38.4320  -74.4160   -1.5830 O         1 <0>         0.0000
   3314 WAT       -38.4320  -74.4160   -1.3330 O         1 <0>         0.0000
   3315 WAT       -38.4320  -74.4160   -1.0830 O         1 <0>         0.0000
   3316 WAT       -38.4320  -74.4160   -0.8330 O         1 <0>         0.0000
   3317 WAT       -38.4320  -74.4160   -0.5830 O         1 <0>         0.0000
   3318 WAT       -38.4320  -74.4160   -0.3330 O         1 <0>         0.0000
   3319 WAT       -38.4320  -74.4160   -0.0830 O         1 <0>         0.0000
   3320 WAT       -38.4320  -74.1660   -9.8330 O         1 <0>         0.0000
   3321 WAT       -38.4320  -74.1660   -9.5830 O         1 <0>         0.0000
   3322 WAT       -38.4320  -74.1660   -9.3330 O         1 <0>         0.0000
   3323 WAT       -38.4320  -74.1660   -9.0830 O         1 <0>         0.0000
   3324 WAT       -38.4320  -74.1660   -8.8330 O         1 <0>         0.0000
   3325 WAT       -38.4320  -74.1660   -8.5830 O         1 <0>         0.0000
   3326 WAT       -38.4320  -74.1660   -8.3330 O         1 <0>         0.0000
   3327 WAT       -38.4320  -74.1660   -8.0830 O         1 <0>         0.0000
   3328 WAT       -38.4320  -74.1660   -7.8330 O         1 <0>         0.0000
   3329 WAT       -38.4320  -74.1660   -7.5830 O         1 <0>         0.0000
   3330 WAT       -38.4320  -74.1660   -7.3330 O         1 <0>         0.0000
   3331 WAT       -38.4320  -74.1660   -7.0830 O         1 <0>         0.0000
   3332 WAT       -38.4320  -74.1660   -6.8330 O         1 <0>         0.0000
   3333 WAT       -38.4320  -74.1660   -6.5830 O         1 <0>         0.0000
   3334 WAT       -38.4320  -74.1660   -6.3330 O         1 <0>         0.0000
   3335 WAT       -38.4320  -74.1660   -6.0830 O         1 <0>         0.0000
   3336 WAT       -38.4320  -74.1660   -5.8330 O         1 <0>         0.0000
   3337 WAT       -38.4320  -74.1660   -5.5830 O         1 <0>         0.0000
   3338 WAT       -38.4320  -74.1660   -5.3330 O         1 <0>         0.0000
   3339 WAT       -38.4320  -74.1660   -5.0830 O         1 <0>         0.0000
   3340 WAT       -38.4320  -74.1660   -4.8330 O         1 <0>         0.0000
   3341 WAT       -38.4320  -74.1660   -4.5830 O         1 <0>         0.0000
   3342 WAT       -38.4320  -74.1660   -4.3330 O         1 <0>         0.0000
   3343 WAT       -38.4320  -74.1660   -4.0830 O         1 <0>         0.0000
   3344 WAT       -38.4320  -74.1660   -3.8330 O         1 <0>         0.0000
   3345 WAT       -38.4320  -74.1660   -3.5830 O         1 <0>         0.0000
   3346 WAT       -38.4320  -74.1660   -3.3330 O         1 <0>         0.0000
   3347 WAT       -38.4320  -74.1660   -3.0830 O         1 <0>         0.0000
   3348 WAT       -38.4320  -74.1660   -2.8330 O         1 <0>         0.0000
   3349 WAT       -38.4320  -74.1660   -2.5830 O         1 <0>         0.0000
   3350 WAT       -38.4320  -74.1660   -2.3330 O         1 <0>         0.0000
   3351 WAT       -38.4320  -74.1660   -2.0830 O         1 <0>         0.0000
   3352 WAT       -38.4320  -74.1660   -1.8330 O         1 <0>         0.0000
   3353 WAT       -38.4320  -74.1660   -1.5830 O         1 <0>         0.0000
   3354 WAT       -38.4320  -74.1660   -1.3330 O         1 <0>         0.0000
   3355 WAT       -38.4320  -74.1660   -1.0830 O         1 <0>         0.0000
   3356 WAT       -38.4320  -74.1660   -0.8330 O         1 <0>         0.0000
   3357 WAT       -38.4320  -74.1660   -0.5830 O         1 <0>         0.0000
   3358 WAT       -38.4320  -74.1660   -0.3330 O         1 <0>         0.0000
   3359 WAT       -38.4320  -74.1660   -0.0830 O         1 <0>         0.0000
   3360 WAT       -38.4320  -73.9160   -9.8330 O         1 <0>         0.0000
   3361 WAT       -38.4320  -73.9160   -9.5830 O         1 <0>         0.0000
   3362 WAT       -38.4320  -73.9160   -9.3330 O         1 <0>         0.0000
   3363 WAT       -38.4320  -73.9160   -9.0830 O         1 <0>         0.0000
   3364 WAT       -38.4320  -73.9160   -8.8330 O         1 <0>         0.0000
   3365 WAT       -38.4320  -73.9160   -8.5830 O         1 <0>         0.0000
   3366 WAT       -38.4320  -73.9160   -8.3330 O         1 <0>         0.0000
   3367 WAT       -38.4320  -73.9160   -8.0830 O         1 <0>         0.0000
   3368 WAT       -38.4320  -73.9160   -7.8330 O         1 <0>         0.0000
   3369 WAT       -38.4320  -73.9160   -7.5830 O         1 <0>         0.0000
   3370 WAT       -38.4320  -73.9160   -7.3330 O         1 <0>         0.0000
   3371 WAT       -38.4320  -73.9160   -7.0830 O         1 <0>         0.0000
   3372 WAT       -38.4320  -73.9160   -6.8330 O         1 <0>         0.0000
   3373 WAT       -38.4320  -73.9160   -6.5830 O         1 <0>         0.0000
   3374 WAT       -38.4320  -73.9160   -6.3330 O         1 <0>         0.0000
   3375 WAT       -38.4320  -73.9160   -6.0830 O         1 <0>         0.0000
   3376 WAT       -38.4320  -73.9160   -5.8330 O         1 <0>         0.0000
   3377 WAT       -38.4320  -73.9160   -5.5830 O         1 <0>         0.0000
   3378 WAT       -38.4320  -73.9160   -5.3330 O         1 <0>         0.0000
   3379 WAT       -38.4320  -73.9160   -5.0830 O         1 <0>         0.0000
   3380 WAT       -38.4320  -73.9160   -4.8330 O         1 <0>         0.0000
   3381 WAT       -38.4320  -73.9160   -4.5830 O         1 <0>         0.0000
   3382 WAT       -38.4320  -73.9160   -4.3330 O         1 <0>         0.0000
   3383 WAT       -38.4320  -73.9160   -4.0830 O         1 <0>         0.0000
   3384 WAT       -38.4320  -73.9160   -3.8330 O         1 <0>         0.0000
   3385 WAT       -38.4320  -73.9160   -3.5830 O         1 <0>         0.0000
   3386 WAT       -38.4320  -73.9160   -3.3330 O         1 <0>         0.0000
   3387 WAT       -38.4320  -73.9160   -3.0830 O         1 <0>         0.0000
   3388 WAT       -38.4320  -73.9160   -2.8330 O         1 <0>         0.0000
   3389 WAT       -38.4320  -73.9160   -2.5830 O         1 <0>         0.0000
   3390 WAT       -38.4320  -73.9160   -2.3330 O         1 <0>         0.0000
   3391 WAT       -38.4320  -73.9160   -2.0830 O         1 <0>         0.0000
   3392 WAT       -38.4320  -73.9160   -1.8330 O         1 <0>         0.0000
   3393 WAT       -38.4320  -73.9160   -1.5830 O         1 <0>         0.0000
   3394 WAT       -38.4320  -73.9160   -1.3330 O         1 <0>         0.0000
   3395 WAT       -38.4320  -73.9160   -1.0830 O         1 <0>         0.0000
   3396 WAT       -38.4320  -73.9160   -0.8330 O         1 <0>         0.0000
   3397 WAT       -38.4320  -73.9160   -0.5830 O         1 <0>         0.0000
   3398 WAT       -38.4320  -73.9160   -0.3330 O         1 <0>         0.0000
   3399 WAT       -38.4320  -73.9160   -0.0830 O         1 <0>         0.0000
   3400 WAT       -38.4320  -73.6660   -9.8330 O         1 <0>         0.0000
   3401 WAT       -38.4320  -73.6660   -9.5830 O         1 <0>         0.0000
   3402 WAT       -38.4320  -73.6660   -9.3330 O         1 <0>         0.0000
   3403 WAT       -38.4320  -73.6660   -9.0830 O         1 <0>         0.0000
   3404 WAT       -38.4320  -73.6660   -8.8330 O         1 <0>         0.0000
   3405 WAT       -38.4320  -73.6660   -8.5830 O         1 <0>         0.0000
   3406 WAT       -38.4320  -73.6660   -8.3330 O         1 <0>         0.0000
   3407 WAT       -38.4320  -73.6660   -8.0830 O         1 <0>         0.0000
   3408 WAT       -38.4320  -73.6660   -7.8330 O         1 <0>         0.0000
   3409 WAT       -38.4320  -73.6660   -7.5830 O         1 <0>         0.0000
   3410 WAT       -38.4320  -73.6660   -7.3330 O         1 <0>         0.0000
   3411 WAT       -38.4320  -73.6660   -7.0830 O         1 <0>         0.0000
   3412 WAT       -38.4320  -73.6660   -6.8330 O         1 <0>         0.0000
   3413 WAT       -38.4320  -73.6660   -6.5830 O         1 <0>         0.0000
   3414 WAT       -38.4320  -73.6660   -6.3330 O         1 <0>         0.0000
   3415 WAT       -38.4320  -73.6660   -6.0830 O         1 <0>         0.0000
   3416 WAT       -38.4320  -73.6660   -5.8330 O         1 <0>         0.0000
   3417 WAT       -38.4320  -73.6660   -5.5830 O         1 <0>         0.0000
   3418 WAT       -38.4320  -73.6660   -5.3330 O         1 <0>         0.0000
   3419 WAT       -38.4320  -73.6660   -5.0830 O         1 <0>         0.0000
   3420 WAT       -38.4320  -73.6660   -4.8330 O         1 <0>         0.0000
   3421 WAT       -38.4320  -73.6660   -4.5830 O         1 <0>         0.0000
   3422 WAT       -38.4320  -73.6660   -4.3330 O         1 <0>         0.0000
   3423 WAT       -38.4320  -73.6660   -4.0830 O         1 <0>         0.0000
   3424 WAT       -38.4320  -73.6660   -3.8330 O         1 <0>         0.0000
   3425 WAT       -38.4320  -73.6660   -3.5830 O         1 <0>         0.0000
   3426 WAT       -38.4320  -73.6660   -3.3330 O         1 <0>         0.0000
   3427 WAT       -38.4320  -73.6660   -3.0830 O         1 <0>         0.0000
   3428 WAT       -38.4320  -73.6660   -2.8330 O         1 <0>         0.0000
   3429 WAT       -38.4320  -73.6660   -2.5830 O         1 <0>         0.0000
   3430 WAT       -38.4320  -73.6660   -2.3330 O         1 <0>         0.0000
   3431 WAT       -38.4320  -73.6660   -2.0830 O         1 <0>         0.0000
   3432 WAT       -38.4320  -73.6660   -1.8330 O         1 <0>         0.0000
   3433 WAT       -38.4320  -73.6660   -1.5830 O         1 <0>         0.0000
   3434 WAT       -38.4320  -73.6660   -1.3330 O         1 <0>         0.0000
   3435 WAT       -38.4320  -73.6660   -1.0830 O         1 <0>         0.0000
   3436 WAT       -38.4320  -73.6660   -0.8330 O         1 <0>         0.0000
   3437 WAT       -38.4320  -73.6660   -0.5830 O         1 <0>         0.0000
   3438 WAT       -38.4320  -73.6660   -0.3330 O         1 <0>         0.0000
   3439 WAT       -38.4320  -73.6660   -0.0830 O         1 <0>         0.0000
   3440 WAT       -38.4320  -73.4160   -9.8330 O         1 <0>         0.0000
   3441 WAT       -38.4320  -73.4160   -9.5830 O         1 <0>         0.0000
   3442 WAT       -38.4320  -73.4160   -9.3330 O         1 <0>         0.0000
   3443 WAT       -38.4320  -73.4160   -9.0830 O         1 <0>         0.0000
   3444 WAT       -38.4320  -73.4160   -8.8330 O         1 <0>         0.0000
   3445 WAT       -38.4320  -73.4160   -8.5830 O         1 <0>         0.0000
   3446 WAT       -38.4320  -73.4160   -8.3330 O         1 <0>         0.0000
   3447 WAT       -38.4320  -73.4160   -8.0830 O         1 <0>         0.0000
   3448 WAT       -38.4320  -73.4160   -7.8330 O         1 <0>         0.0000
   3449 WAT       -38.4320  -73.4160   -7.5830 O         1 <0>         0.0000
   3450 WAT       -38.4320  -73.4160   -7.3330 O         1 <0>         0.0000
   3451 WAT       -38.4320  -73.4160   -7.0830 O         1 <0>         0.0000
   3452 WAT       -38.4320  -73.4160   -6.8330 O         1 <0>         0.0000
   3453 WAT       -38.4320  -73.4160   -6.5830 O         1 <0>         0.0000
   3454 WAT       -38.4320  -73.4160   -6.3330 O         1 <0>         0.0000
   3455 WAT       -38.4320  -73.4160   -6.0830 O         1 <0>         0.0000
   3456 WAT       -38.4320  -73.4160   -5.8330 O         1 <0>         0.0000
   3457 WAT       -38.4320  -73.4160   -5.5830 O         1 <0>         0.0000
   3458 WAT       -38.4320  -73.4160   -5.3330 O         1 <0>         0.0000
   3459 WAT       -38.4320  -73.4160   -5.0830 O         1 <0>         0.0000
   3460 WAT       -38.4320  -73.4160   -4.8330 O         1 <0>         0.0000
   3461 WAT       -38.4320  -73.4160   -4.5830 O         1 <0>         0.0000
   3462 WAT       -38.4320  -73.4160   -4.3330 O         1 <0>         0.0000
   3463 WAT       -38.4320  -73.4160   -4.0830 O         1 <0>         0.0000
   3464 WAT       -38.4320  -73.4160   -3.8330 O         1 <0>         0.0000
   3465 WAT       -38.4320  -73.4160   -3.5830 O         1 <0>         0.0000
   3466 WAT       -38.4320  -73.4160   -3.3330 O         1 <0>         0.0000
   3467 WAT       -38.4320  -73.4160   -3.0830 O         1 <0>         0.0000
   3468 WAT       -38.4320  -73.4160   -2.8330 O         1 <0>         0.0000
   3469 WAT       -38.4320  -73.4160   -2.5830 O         1 <0>         0.0000
   3470 WAT       -38.4320  -73.4160   -2.3330 O         1 <0>         0.0000
   3471 WAT       -38.4320  -73.4160   -2.0830 O         1 <0>         0.0000
   3472 WAT       -38.4320  -73.4160   -1.8330 O         1 <0>         0.0000
   3473 WAT       -38.4320  -73.4160   -1.5830 O         1 <0>         0.0000
   3474 WAT       -38.4320  -73.4160   -1.3330 O         1 <0>         0.0000
   3475 WAT       -38.4320  -73.4160   -1.0830 O         1 <0>         0.0000
   3476 WAT       -38.4320  -73.4160   -0.8330 O         1 <0>         0.0000
   3477 WAT       -38.4320  -73.4160   -0.5830 O         1 <0>         0.0000
   3478 WAT       -38.4320  -73.4160   -0.3330 O         1 <0>         0.0000
   3479 WAT       -38.4320  -73.4160   -0.0830 O         1 <0>         0.0000
   3480 WAT       -38.4320  -73.1660   -9.8330 O         1 <0>         0.0000
   3481 WAT       -38.4320  -73.1660   -9.5830 O         1 <0>         0.0000
   3482 WAT       -38.4320  -73.1660   -9.3330 O         1 <0>         0.0000
   3483 WAT       -38.4320  -73.1660   -9.0830 O         1 <0>         0.0000
   3484 WAT       -38.4320  -73.1660   -8.8330 O         1 <0>         0.0000
   3485 WAT       -38.4320  -73.1660   -8.5830 O         1 <0>         0.0000
   3486 WAT       -38.4320  -73.1660   -8.3330 O         1 <0>         0.0000
   3487 WAT       -38.4320  -73.1660   -8.0830 O         1 <0>         0.0000
   3488 WAT       -38.4320  -73.1660   -7.8330 O         1 <0>         0.0000
   3489 WAT       -38.4320  -73.1660   -7.5830 O         1 <0>         0.0000
   3490 WAT       -38.4320  -73.1660   -7.3330 O         1 <0>         0.0000
   3491 WAT       -38.4320  -73.1660   -7.0830 O         1 <0>         0.0000
   3492 WAT       -38.4320  -73.1660   -6.8330 O         1 <0>         0.0000
   3493 WAT       -38.4320  -73.1660   -6.5830 O         1 <0>         0.0000
   3494 WAT       -38.4320  -73.1660   -6.3330 O         1 <0>         0.0000
   3495 WAT       -38.4320  -73.1660   -6.0830 O         1 <0>         0.0000
   3496 WAT       -38.4320  -73.1660   -5.8330 O         1 <0>         0.0000
   3497 WAT       -38.4320  -73.1660   -5.5830 O         1 <0>         0.0000
   3498 WAT       -38.4320  -73.1660   -5.3330 O         1 <0>         0.0000
   3499 WAT       -38.4320  -73.1660   -5.0830 O         1 <0>         0.0000
   3500 WAT       -38.4320  -73.1660   -4.8330 O         1 <0>         0.0000
   3501 WAT       -38.4320  -73.1660   -4.5830 O         1 <0>         0.0000
   3502 WAT       -38.4320  -73.1660   -4.3330 O         1 <0>         0.0000
   3503 WAT       -38.4320  -73.1660   -4.0830 O         1 <0>         0.0000
   3504 WAT       -38.4320  -73.1660   -3.8330 O         1 <0>         0.0000
   3505 WAT       -38.4320  -73.1660   -3.5830 O         1 <0>         0.0000
   3506 WAT       -38.4320  -73.1660   -3.3330 O         1 <0>         0.0000
   3507 WAT       -38.4320  -73.1660   -3.0830 O         1 <0>         0.0000
   3508 WAT       -38.4320  -73.1660   -2.8330 O         1 <0>         0.0000
   3509 WAT       -38.4320  -73.1660   -2.5830 O         1 <0>         0.0000
   3510 WAT       -38.4320  -73.1660   -2.3330 O         1 <0>         0.0000
   3511 WAT       -38.4320  -73.1660   -2.0830 O         1 <0>         0.0000
   3512 WAT       -38.4320  -73.1660   -1.8330 O         1 <0>         0.0000
   3513 WAT       -38.4320  -73.1660   -1.5830 O         1 <0>         0.0000
   3514 WAT       -38.4320  -73.1660   -1.3330 O         1 <0>         0.0000
   3515 WAT       -38.4320  -73.1660   -1.0830 O         1 <0>         0.0000
   3516 WAT       -38.4320  -73.1660   -0.8330 O         1 <0>         0.0000
   3517 WAT       -38.4320  -73.1660   -0.5830 O         1 <0>         0.0000
   3518 WAT       -38.4320  -73.1660   -0.3330 O         1 <0>         0.0000
   3519 WAT       -38.4320  -73.1660   -0.0830 O         1 <0>         0.0000
   3520 WAT       -38.4320  -72.9160   -9.8330 O         1 <0>         0.0000
   3521 WAT       -38.4320  -72.9160   -9.5830 O         1 <0>         0.0000
   3522 WAT       -38.4320  -72.9160   -9.3330 O         1 <0>         0.0000
   3523 WAT       -38.4320  -72.9160   -9.0830 O         1 <0>         0.0000
   3524 WAT       -38.4320  -72.9160   -8.8330 O         1 <0>         0.0000
   3525 WAT       -38.4320  -72.9160   -8.5830 O         1 <0>         0.0000
   3526 WAT       -38.4320  -72.9160   -8.3330 O         1 <0>         0.0000
   3527 WAT       -38.4320  -72.9160   -8.0830 O         1 <0>         0.0000
   3528 WAT       -38.4320  -72.9160   -7.8330 O         1 <0>         0.0000
   3529 WAT       -38.4320  -72.9160   -7.5830 O         1 <0>         0.0000
   3530 WAT       -38.4320  -72.9160   -7.3330 O         1 <0>         0.0000
   3531 WAT       -38.4320  -72.9160   -7.0830 O         1 <0>         0.0000
   3532 WAT       -38.4320  -72.9160   -6.8330 O         1 <0>         0.0000
   3533 WAT       -38.4320  -72.9160   -6.5830 O         1 <0>         0.0000
   3534 WAT       -38.4320  -72.9160   -6.3330 O         1 <0>         0.0000
   3535 WAT       -38.4320  -72.9160   -6.0830 O         1 <0>         0.0000
   3536 WAT       -38.4320  -72.9160   -5.8330 O         1 <0>         0.0000
   3537 WAT       -38.4320  -72.9160   -5.5830 O         1 <0>         0.0000
   3538 WAT       -38.4320  -72.9160   -5.3330 O         1 <0>         0.0000
   3539 WAT       -38.4320  -72.9160   -5.0830 O         1 <0>         0.0000
   3540 WAT       -38.4320  -72.9160   -4.8330 O         1 <0>         0.0000
   3541 WAT       -38.4320  -72.9160   -4.5830 O         1 <0>         0.0000
   3542 WAT       -38.4320  -72.9160   -4.3330 O         1 <0>         0.0000
   3543 WAT       -38.4320  -72.9160   -4.0830 O         1 <0>         0.0000
   3544 WAT       -38.4320  -72.9160   -3.8330 O         1 <0>         0.0000
   3545 WAT       -38.4320  -72.9160   -3.5830 O         1 <0>         0.0000
   3546 WAT       -38.4320  -72.9160   -3.3330 O         1 <0>         0.0000
   3547 WAT       -38.4320  -72.9160   -3.0830 O         1 <0>         0.0000
   3548 WAT       -38.4320  -72.9160   -2.8330 O         1 <0>         0.0000
   3549 WAT       -38.4320  -72.9160   -2.5830 O         1 <0>         0.0000
   3550 WAT       -38.4320  -72.9160   -2.3330 O         1 <0>         0.0000
   3551 WAT       -38.4320  -72.9160   -2.0830 O         1 <0>         0.0000
   3552 WAT       -38.4320  -72.9160   -1.8330 O         1 <0>         0.0000
   3553 WAT       -38.4320  -72.9160   -1.5830 O         1 <0>         0.0000
   3554 WAT       -38.4320  -72.9160   -1.3330 O         1 <0>         0.0000
   3555 WAT       -38.4320  -72.9160   -1.0830 O         1 <0>         0.0000
   3556 WAT       -38.4320  -72.9160   -0.8330 O         1 <0>         0.0000
   3557 WAT       -38.4320  -72.9160   -0.5830 O         1 <0>         0.0000
   3558 WAT       -38.4320  -72.9160   -0.3330 O         1 <0>         0.0000
   3559 WAT       -38.4320  -72.9160   -0.0830 O         1 <0>         0.0000
   3560 WAT       -38.4320  -72.6660   -9.8330 O         1 <0>         0.0000
   3561 WAT       -38.4320  -72.6660   -9.5830 O         1 <0>         0.0000
   3562 WAT       -38.4320  -72.6660   -9.3330 O         1 <0>         0.0000
   3563 WAT       -38.4320  -72.6660   -9.0830 O         1 <0>         0.0000
   3564 WAT       -38.4320  -72.6660   -8.8330 O         1 <0>         0.0000
   3565 WAT       -38.4320  -72.6660   -8.5830 O         1 <0>         0.0000
   3566 WAT       -38.4320  -72.6660   -8.3330 O         1 <0>         0.0000
   3567 WAT       -38.4320  -72.6660   -8.0830 O         1 <0>         0.0000
   3568 WAT       -38.4320  -72.6660   -7.8330 O         1 <0>         0.0000
   3569 WAT       -38.4320  -72.6660   -7.5830 O         1 <0>         0.0000
   3570 WAT       -38.4320  -72.6660   -7.3330 O         1 <0>         0.0000
   3571 WAT       -38.4320  -72.6660   -7.0830 O         1 <0>         0.0000
   3572 WAT       -38.4320  -72.6660   -6.8330 O         1 <0>         0.0000
   3573 WAT       -38.4320  -72.6660   -6.5830 O         1 <0>         0.0000
   3574 WAT       -38.4320  -72.6660   -6.3330 O         1 <0>         0.0000
   3575 WAT       -38.4320  -72.6660   -6.0830 O         1 <0>         0.0000
   3576 WAT       -38.4320  -72.6660   -5.8330 O         1 <0>         0.0000
   3577 WAT       -38.4320  -72.6660   -5.5830 O         1 <0>         0.0000
   3578 WAT       -38.4320  -72.6660   -5.3330 O         1 <0>         0.0000
   3579 WAT       -38.4320  -72.6660   -5.0830 O         1 <0>         0.0000
   3580 WAT       -38.4320  -72.6660   -4.8330 O         1 <0>         0.0000
   3581 WAT       -38.4320  -72.6660   -4.5830 O         1 <0>         0.0000
   3582 WAT       -38.4320  -72.6660   -4.3330 O         1 <0>         0.0000
   3583 WAT       -38.4320  -72.6660   -4.0830 O         1 <0>         0.0000
   3584 WAT       -38.4320  -72.6660   -3.8330 O         1 <0>         0.0000
   3585 WAT       -38.4320  -72.6660   -3.5830 O         1 <0>         0.0000
   3586 WAT       -38.4320  -72.6660   -3.3330 O         1 <0>         0.0000
   3587 WAT       -38.4320  -72.6660   -3.0830 O         1 <0>         0.0000
   3588 WAT       -38.4320  -72.6660   -2.8330 O         1 <0>         0.0000
   3589 WAT       -38.4320  -72.6660   -2.5830 O         1 <0>         0.0000
   3590 WAT       -38.4320  -72.6660   -2.3330 O         1 <0>         0.0000
   3591 WAT       -38.4320  -72.6660   -2.0830 O         1 <0>         0.0000
   3592 WAT       -38.4320  -72.6660   -1.8330 O         1 <0>         0.0000
   3593 WAT       -38.4320  -72.6660   -1.5830 O         1 <0>         0.0000
   3594 WAT       -38.4320  -72.6660   -1.3330 O         1 <0>         0.0000
   3595 WAT       -38.4320  -72.6660   -1.0830 O         1 <0>         0.0000
   3596 WAT       -38.4320  -72.6660   -0.8330 O         1 <0>         0.0000
   3597 WAT       -38.4320  -72.6660   -0.5830 O         1 <0>         0.0000
   3598 WAT       -38.4320  -72.6660   -0.3330 O         1 <0>         0.0000
   3599 WAT       -38.4320  -72.6660   -0.0830 O         1 <0>         0.0000
   3600 WAT       -38.4320  -72.4160   -9.8330 O         1 <0>         0.0000
   3601 WAT       -38.4320  -72.4160   -9.5830 O         1 <0>         0.0000
   3602 WAT       -38.4320  -72.4160   -9.3330 O         1 <0>         0.0000
   3603 WAT       -38.4320  -72.4160   -9.0830 O         1 <0>         0.0000
   3604 WAT       -38.4320  -72.4160   -8.8330 O         1 <0>         0.0000
   3605 WAT       -38.4320  -72.4160   -8.5830 O         1 <0>         0.0000
   3606 WAT       -38.4320  -72.4160   -8.3330 O         1 <0>         0.0000
   3607 WAT       -38.4320  -72.4160   -8.0830 O         1 <0>         0.0000
   3608 WAT       -38.4320  -72.4160   -7.8330 O         1 <0>         0.0000
   3609 WAT       -38.4320  -72.4160   -7.5830 O         1 <0>         0.0000
   3610 WAT       -38.4320  -72.4160   -7.3330 O         1 <0>         0.0000
   3611 WAT       -38.4320  -72.4160   -7.0830 O         1 <0>         0.0000
   3612 WAT       -38.4320  -72.4160   -6.8330 O         1 <0>         0.0000
   3613 WAT       -38.4320  -72.4160   -6.5830 O         1 <0>         0.0000
   3614 WAT       -38.4320  -72.4160   -6.3330 O         1 <0>         0.0000
   3615 WAT       -38.4320  -72.4160   -6.0830 O         1 <0>         0.0000
   3616 WAT       -38.4320  -72.4160   -5.8330 O         1 <0>         0.0000
   3617 WAT       -38.4320  -72.4160   -5.5830 O         1 <0>         0.0000
   3618 WAT       -38.4320  -72.4160   -5.3330 O         1 <0>         0.0000
   3619 WAT       -38.4320  -72.4160   -5.0830 O         1 <0>         0.0000
   3620 WAT       -38.4320  -72.4160   -4.8330 O         1 <0>         0.0000
   3621 WAT       -38.4320  -72.4160   -4.5830 O         1 <0>         0.0000
   3622 WAT       -38.4320  -72.4160   -4.3330 O         1 <0>         0.0000
   3623 WAT       -38.4320  -72.4160   -4.0830 O         1 <0>         0.0000
   3624 WAT       -38.4320  -72.4160   -3.8330 O         1 <0>         0.0000
   3625 WAT       -38.4320  -72.4160   -3.5830 O         1 <0>         0.0000
   3626 WAT       -38.4320  -72.4160   -3.3330 O         1 <0>         0.0000
   3627 WAT       -38.4320  -72.4160   -3.0830 O         1 <0>         0.0000
   3628 WAT       -38.4320  -72.4160   -2.8330 O         1 <0>         0.0000
   3629 WAT       -38.4320  -72.4160   -2.5830 O         1 <0>         0.0000
   3630 WAT       -38.4320  -72.4160   -2.3330 O         1 <0>         0.0000
   3631 WAT       -38.4320  -72.4160   -2.0830 O         1 <0>         0.0000
   3632 WAT       -38.4320  -72.4160   -1.8330 O         1 <0>         0.0000
   3633 WAT       -38.4320  -72.4160   -1.5830 O         1 <0>         0.0000
   3634 WAT       -38.4320  -72.4160   -1.3330 O         1 <0>         0.0000
   3635 WAT       -38.4320  -72.4160   -1.0830 O         1 <0>         0.0000
   3636 WAT       -38.4320  -72.4160   -0.8330 O         1 <0>         0.0000
   3637 WAT       -38.4320  -72.4160   -0.5830 O         1 <0>         0.0000
   3638 WAT       -38.4320  -72.4160   -0.3330 O         1 <0>         0.0000
   3639 WAT       -38.4320  -72.4160   -0.0830 O         1 <0>         0.0000
   3640 WAT       -38.4320  -72.1660   -9.8330 O         1 <0>         0.0000
   3641 WAT       -38.4320  -72.1660   -9.5830 O         1 <0>         0.0000
   3642 WAT       -38.4320  -72.1660   -9.3330 O         1 <0>         0.0000
   3643 WAT       -38.4320  -72.1660   -9.0830 O         1 <0>         0.0000
   3644 WAT       -38.4320  -72.1660   -8.8330 O         1 <0>         0.0000
   3645 WAT       -38.4320  -72.1660   -8.5830 O         1 <0>         0.0000
   3646 WAT       -38.4320  -72.1660   -8.3330 O         1 <0>         0.0000
   3647 WAT       -38.4320  -72.1660   -8.0830 O         1 <0>         0.0000
   3648 WAT       -38.4320  -72.1660   -7.8330 O         1 <0>         0.0000
   3649 WAT       -38.4320  -72.1660   -7.5830 O         1 <0>         0.0000
   3650 WAT       -38.4320  -72.1660   -7.3330 O         1 <0>         0.0000
   3651 WAT       -38.4320  -72.1660   -7.0830 O         1 <0>         0.0000
   3652 WAT       -38.4320  -72.1660   -6.8330 O         1 <0>         0.0000
   3653 WAT       -38.4320  -72.1660   -6.5830 O         1 <0>         0.0000
   3654 WAT       -38.4320  -72.1660   -6.3330 O         1 <0>         0.0000
   3655 WAT       -38.4320  -72.1660   -6.0830 O         1 <0>         0.0000
   3656 WAT       -38.4320  -72.1660   -5.8330 O         1 <0>         0.0000
   3657 WAT       -38.4320  -72.1660   -5.5830 O         1 <0>         0.0000
   3658 WAT       -38.4320  -72.1660   -5.3330 O         1 <0>         0.0000
   3659 WAT       -38.4320  -72.1660   -5.0830 O         1 <0>         0.0000
   3660 WAT       -38.4320  -72.1660   -4.8330 O         1 <0>         0.0000
   3661 WAT       -38.4320  -72.1660   -4.5830 O         1 <0>         0.0000
   3662 WAT       -38.4320  -72.1660   -4.3330 O         1 <0>         0.0000
   3663 WAT       -38.4320  -72.1660   -4.0830 O         1 <0>         0.0000
   3664 WAT       -38.4320  -72.1660   -3.8330 O         1 <0>         0.0000
   3665 WAT       -38.4320  -72.1660   -3.5830 O         1 <0>         0.0000
   3666 WAT       -38.4320  -72.1660   -3.3330 O         1 <0>         0.0000
   3667 WAT       -38.4320  -72.1660   -3.0830 O         1 <0>         0.0000
   3668 WAT       -38.4320  -72.1660   -2.8330 O         1 <0>         0.0000
   3669 WAT       -38.4320  -72.1660   -2.5830 O         1 <0>         0.0000
   3670 WAT       -38.4320  -72.1660   -2.3330 O         1 <0>         0.0000
   3671 WAT       -38.4320  -72.1660   -2.0830 O         1 <0>         0.0000
   3672 WAT       -38.4320  -72.1660   -1.8330 O         1 <0>         0.0000
   3673 WAT       -38.4320  -72.1660   -1.5830 O         1 <0>         0.0000
   3674 WAT       -38.4320  -72.1660   -1.3330 O         1 <0>         0.0000
   3675 WAT       -38.4320  -72.1660   -1.0830 O         1 <0>         0.0000
   3676 WAT       -38.4320  -72.1660   -0.8330 O         1 <0>         0.0000
   3677 WAT       -38.4320  -72.1660   -0.5830 O         1 <0>         0.0000
   3678 WAT       -38.4320  -72.1660   -0.3330 O         1 <0>         0.0000
   3679 WAT       -38.4320  -72.1660   -0.0830 O         1 <0>         0.0000
   3680 WAT       -38.4320  -71.9160   -9.8330 O         1 <0>         0.0000
   3681 WAT       -38.4320  -71.9160   -9.5830 O         1 <0>         0.0000
   3682 WAT       -38.4320  -71.9160   -9.3330 O         1 <0>         0.0000
   3683 WAT       -38.4320  -71.9160   -9.0830 O         1 <0>         0.0000
   3684 WAT       -38.4320  -71.9160   -8.8330 O         1 <0>         0.0000
   3685 WAT       -38.4320  -71.9160   -8.5830 O         1 <0>         0.0000
   3686 WAT       -38.4320  -71.9160   -8.3330 O         1 <0>         0.0000
   3687 WAT       -38.4320  -71.9160   -8.0830 O         1 <0>         0.0000
   3688 WAT       -38.4320  -71.9160   -7.8330 O         1 <0>         0.0000
   3689 WAT       -38.4320  -71.9160   -7.5830 O         1 <0>         0.0000
   3690 WAT       -38.4320  -71.9160   -7.3330 O         1 <0>         0.0000
   3691 WAT       -38.4320  -71.9160   -7.0830 O         1 <0>         0.0000
   3692 WAT       -38.4320  -71.9160   -6.8330 O         1 <0>         0.0000
   3693 WAT       -38.4320  -71.9160   -6.5830 O         1 <0>         0.0000
   3694 WAT       -38.4320  -71.9160   -6.3330 O         1 <0>         0.0000
   3695 WAT       -38.4320  -71.9160   -6.0830 O         1 <0>         0.0000
   3696 WAT       -38.4320  -71.9160   -5.8330 O         1 <0>         0.0000
   3697 WAT       -38.4320  -71.9160   -5.5830 O         1 <0>         0.0000
   3698 WAT       -38.4320  -71.9160   -5.3330 O         1 <0>         0.0000
   3699 WAT       -38.4320  -71.9160   -5.0830 O         1 <0>         0.0000
   3700 WAT       -38.4320  -71.9160   -4.8330 O         1 <0>         0.0000
   3701 WAT       -38.4320  -71.9160   -4.5830 O         1 <0>         0.0000
   3702 WAT       -38.4320  -71.9160   -4.3330 O         1 <0>         0.0000
   3703 WAT       -38.4320  -71.9160   -4.0830 O         1 <0>         0.0000
   3704 WAT       -38.4320  -71.9160   -3.8330 O         1 <0>         0.0000
   3705 WAT       -38.4320  -71.9160   -3.5830 O         1 <0>         0.0000
   3706 WAT       -38.4320  -71.9160   -3.3330 O         1 <0>         0.0000
   3707 WAT       -38.4320  -71.9160   -3.0830 O         1 <0>         0.0000
   3708 WAT       -38.4320  -71.9160   -2.8330 O         1 <0>         0.0000
   3709 WAT       -38.4320  -71.9160   -2.5830 O         1 <0>         0.0000
   3710 WAT       -38.4320  -71.9160   -2.3330 O         1 <0>         0.0000
   3711 WAT       -38.4320  -71.9160   -2.0830 O         1 <0>         0.0000
   3712 WAT       -38.4320  -71.9160   -1.8330 O         1 <0>         0.0000
   3713 WAT       -38.4320  -71.9160   -1.5830 O         1 <0>         0.0000
   3714 WAT       -38.4320  -71.9160   -1.3330 O         1 <0>         0.0000
   3715 WAT       -38.4320  -71.9160   -1.0830 O         1 <0>         0.0000
   3716 WAT       -38.4320  -71.9160   -0.8330 O         1 <0>         0.0000
   3717 WAT       -38.4320  -71.9160   -0.5830 O         1 <0>         0.0000
   3718 WAT       -38.4320  -71.9160   -0.3330 O         1 <0>         0.0000
   3719 WAT       -38.4320  -71.9160   -0.0830 O         1 <0>         0.0000
   3720 WAT       -38.4320  -71.6660   -9.8330 O         1 <0>         0.0000
   3721 WAT       -38.4320  -71.6660   -9.5830 O         1 <0>         0.0000
   3722 WAT       -38.4320  -71.6660   -9.3330 O         1 <0>         0.0000
   3723 WAT       -38.4320  -71.6660   -9.0830 O         1 <0>         0.0000
   3724 WAT       -38.4320  -71.6660   -8.8330 O         1 <0>         0.0000
   3725 WAT       -38.4320  -71.6660   -8.5830 O         1 <0>         0.0000
   3726 WAT       -38.4320  -71.6660   -8.3330 O         1 <0>         0.0000
   3727 WAT       -38.4320  -71.6660   -8.0830 O         1 <0>         0.0000
   3728 WAT       -38.4320  -71.6660   -7.8330 O         1 <0>         0.0000
   3729 WAT       -38.4320  -71.6660   -7.5830 O         1 <0>         0.0000
   3730 WAT       -38.4320  -71.6660   -7.3330 O         1 <0>         0.0000
   3731 WAT       -38.4320  -71.6660   -7.0830 O         1 <0>         0.0000
   3732 WAT       -38.4320  -71.6660   -6.8330 O         1 <0>         0.0000
   3733 WAT       -38.4320  -71.6660   -6.5830 O         1 <0>         0.0000
   3734 WAT       -38.4320  -71.6660   -6.3330 O         1 <0>         0.0000
   3735 WAT       -38.4320  -71.6660   -6.0830 O         1 <0>         0.0000
   3736 WAT       -38.4320  -71.6660   -5.8330 O         1 <0>         0.0000
   3737 WAT       -38.4320  -71.6660   -5.5830 O         1 <0>         0.0000
   3738 WAT       -38.4320  -71.6660   -5.3330 O         1 <0>         0.0000
   3739 WAT       -38.4320  -71.6660   -5.0830 O         1 <0>         0.0000
   3740 WAT       -38.4320  -71.6660   -4.8330 O         1 <0>         0.0000
   3741 WAT       -38.4320  -71.6660   -4.5830 O         1 <0>         0.0000
   3742 WAT       -38.4320  -71.6660   -4.3330 O         1 <0>         0.0000
   3743 WAT       -38.4320  -71.6660   -4.0830 O         1 <0>         0.0000
   3744 WAT       -38.4320  -71.6660   -3.8330 O         1 <0>         0.0000
   3745 WAT       -38.4320  -71.6660   -3.5830 O         1 <0>         0.0000
   3746 WAT       -38.4320  -71.6660   -3.3330 O         1 <0>         0.0000
   3747 WAT       -38.4320  -71.6660   -3.0830 O         1 <0>         0.0000
   3748 WAT       -38.4320  -71.6660   -2.8330 O         1 <0>         0.0000
   3749 WAT       -38.4320  -71.6660   -2.5830 O         1 <0>         0.0000
   3750 WAT       -38.4320  -71.6660   -2.3330 O         1 <0>         0.0000
   3751 WAT       -38.4320  -71.6660   -2.0830 O         1 <0>         0.0000
   3752 WAT       -38.4320  -71.6660   -1.8330 O         1 <0>         0.0000
   3753 WAT       -38.4320  -71.6660   -1.5830 O         1 <0>         0.0000
   3754 WAT       -38.4320  -71.6660   -1.3330 O         1 <0>         0.0000
   3755 WAT       -38.4320  -71.6660   -1.0830 O         1 <0>         0.0000
   3756 WAT       -38.4320  -71.6660   -0.8330 O         1 <0>         0.0000
   3757 WAT       -38.4320  -71.6660   -0.5830 O         1 <0>         0.0000
   3758 WAT       -38.4320  -71.6660   -0.3330 O         1 <0>         0.0000
   3759 WAT       -38.4320  -71.6660   -0.0830 O         1 <0>         0.0000
   3760 WAT       -38.4320  -71.4160   -9.8330 O         1 <0>         0.0000
   3761 WAT       -38.4320  -71.4160   -9.5830 O         1 <0>         0.0000
   3762 WAT       -38.4320  -71.4160   -9.3330 O         1 <0>         0.0000
   3763 WAT       -38.4320  -71.4160   -9.0830 O         1 <0>         0.0000
   3764 WAT       -38.4320  -71.4160   -8.8330 O         1 <0>         0.0000
   3765 WAT       -38.4320  -71.4160   -8.5830 O         1 <0>         0.0000
   3766 WAT       -38.4320  -71.4160   -8.3330 O         1 <0>         0.0000
   3767 WAT       -38.4320  -71.4160   -8.0830 O         1 <0>         0.0000
   3768 WAT       -38.4320  -71.4160   -7.8330 O         1 <0>         0.0000
   3769 WAT       -38.4320  -71.4160   -7.5830 O         1 <0>         0.0000
   3770 WAT       -38.4320  -71.4160   -7.3330 O         1 <0>         0.0000
   3771 WAT       -38.4320  -71.4160   -7.0830 O         1 <0>         0.0000
   3772 WAT       -38.4320  -71.4160   -6.8330 O         1 <0>         0.0000
   3773 WAT       -38.4320  -71.4160   -6.5830 O         1 <0>         0.0000
   3774 WAT       -38.4320  -71.4160   -6.3330 O         1 <0>         0.0000
   3775 WAT       -38.4320  -71.4160   -6.0830 O         1 <0>         0.0000
   3776 WAT       -38.4320  -71.4160   -5.8330 O         1 <0>         0.0000
   3777 WAT       -38.4320  -71.4160   -5.5830 O         1 <0>         0.0000
   3778 WAT       -38.4320  -71.4160   -5.3330 O         1 <0>         0.0000
   3779 WAT       -38.4320  -71.4160   -5.0830 O         1 <0>         0.0000
   3780 WAT       -38.4320  -71.4160   -4.8330 O         1 <0>         0.0000
   3781 WAT       -38.4320  -71.4160   -4.5830 O         1 <0>         0.0000
   3782 WAT       -38.4320  -71.4160   -4.3330 O         1 <0>         0.0000
   3783 WAT       -38.4320  -71.4160   -4.0830 O         1 <0>         0.0000
   3784 WAT       -38.4320  -71.4160   -3.8330 O         1 <0>         0.0000
   3785 WAT       -38.4320  -71.4160   -3.5830 O         1 <0>         0.0000
   3786 WAT       -38.4320  -71.4160   -3.3330 O         1 <0>         0.0000
   3787 WAT       -38.4320  -71.4160   -3.0830 O         1 <0>         0.0000
   3788 WAT       -38.4320  -71.4160   -2.8330 O         1 <0>         0.0000
   3789 WAT       -38.4320  -71.4160   -2.5830 O         1 <0>         0.0000
   3790 WAT       -38.4320  -71.4160   -2.3330 O         1 <0>         0.0000
   3791 WAT       -38.4320  -71.4160   -2.0830 O         1 <0>         0.0000
   3792 WAT       -38.4320  -71.4160   -1.8330 O         1 <0>         0.0000
   3793 WAT       -38.4320  -71.4160   -1.5830 O         1 <0>         0.0000
   3794 WAT       -38.4320  -71.4160   -1.3330 O         1 <0>         0.0000
   3795 WAT       -38.4320  -71.4160   -1.0830 O         1 <0>         0.0000
   3796 WAT       -38.4320  -71.4160   -0.8330 O         1 <0>         0.0000
   3797 WAT       -38.4320  -71.4160   -0.5830 O         1 <0>         0.0000
   3798 WAT       -38.4320  -71.4160   -0.3330 O         1 <0>         0.0000
   3799 WAT       -38.4320  -71.4160   -0.0830 O         1 <0>         0.0000
   3800 WAT       -38.4320  -71.1660   -9.8330 O         1 <0>         0.0000
   3801 WAT       -38.4320  -71.1660   -9.5830 O         1 <0>         0.0000
   3802 WAT       -38.4320  -71.1660   -9.3330 O         1 <0>         0.0000
   3803 WAT       -38.4320  -71.1660   -9.0830 O         1 <0>         0.0000
   3804 WAT       -38.4320  -71.1660   -8.8330 O         1 <0>         0.0000
   3805 WAT       -38.4320  -71.1660   -8.5830 O         1 <0>         0.0000
   3806 WAT       -38.4320  -71.1660   -8.3330 O         1 <0>         0.0000
   3807 WAT       -38.4320  -71.1660   -8.0830 O         1 <0>         0.0000
   3808 WAT       -38.4320  -71.1660   -7.8330 O         1 <0>         0.0000
   3809 WAT       -38.4320  -71.1660   -7.5830 O         1 <0>         0.0000
   3810 WAT       -38.4320  -71.1660   -7.3330 O         1 <0>         0.0000
   3811 WAT       -38.4320  -71.1660   -7.0830 O         1 <0>         0.0000
   3812 WAT       -38.4320  -71.1660   -6.8330 O         1 <0>         0.0000
   3813 WAT       -38.4320  -71.1660   -6.5830 O         1 <0>         0.0000
   3814 WAT       -38.4320  -71.1660   -6.3330 O         1 <0>         0.0000
   3815 WAT       -38.4320  -71.1660   -6.0830 O         1 <0>         0.0000
   3816 WAT       -38.4320  -71.1660   -5.8330 O         1 <0>         0.0000
   3817 WAT       -38.4320  -71.1660   -5.5830 O         1 <0>         0.0000
   3818 WAT       -38.4320  -71.1660   -5.3330 O         1 <0>         0.0000
   3819 WAT       -38.4320  -71.1660   -5.0830 O         1 <0>         0.0000
   3820 WAT       -38.4320  -71.1660   -4.8330 O         1 <0>         0.0000
   3821 WAT       -38.4320  -71.1660   -4.5830 O         1 <0>         0.0000
   3822 WAT       -38.4320  -71.1660   -4.3330 O         1 <0>         0.0000
   3823 WAT       -38.4320  -71.1660   -4.0830 O         1 <0>         0.0000
   3824 WAT       -38.4320  -71.1660   -3.8330 O         1 <0>         0.0000
   3825 WAT       -38.4320  -71.1660   -3.5830 O         1 <0>         0.0000
   3826 WAT       -38.4320  -71.1660   -3.3330 O         1 <0>         0.0000
   3827 WAT       -38.4320  -71.1660   -3.0830 O         1 <0>         0.0000
   3828 WAT       -38.4320  -71.1660   -2.8330 O         1 <0>         0.0000
   3829 WAT       -38.4320  -71.1660   -2.5830 O         1 <0>         0.0000
   3830 WAT       -38.4320  -71.1660   -2.3330 O         1 <0>         0.0000
   3831 WAT       -38.4320  -71.1660   -2.0830 O         1 <0>         0.0000
   3832 WAT       -38.4320  -71.1660   -1.8330 O         1 <0>         0.0000
   3833 WAT       -38.4320  -71.1660   -1.5830 O         1 <0>         0.0000
   3834 WAT       -38.4320  -71.1660   -1.3330 O         1 <0>         0.0000
   3835 WAT       -38.4320  -71.1660   -1.0830 O         1 <0>         0.0000
   3836 WAT       -38.4320  -71.1660   -0.8330 O         1 <0>         0.0000
   3837 WAT       -38.4320  -71.1660   -0.5830 O         1 <0>         0.0000
   3838 WAT       -38.4320  -71.1660   -0.3330 O         1 <0>         0.0000
   3839 WAT       -38.4320  -71.1660   -0.0830 O         1 <0>         0.0000
   3840 WAT       -38.4320  -70.9160   -9.8330 O         1 <0>         0.0000
   3841 WAT       -38.4320  -70.9160   -9.5830 O         1 <0>         0.0000
   3842 WAT       -38.4320  -70.9160   -9.3330 O         1 <0>         0.0000
   3843 WAT       -38.4320  -70.9160   -9.0830 O         1 <0>         0.0000
   3844 WAT       -38.4320  -70.9160   -8.8330 O         1 <0>         0.0000
   3845 WAT       -38.4320  -70.9160   -8.5830 O         1 <0>         0.0000
   3846 WAT       -38.4320  -70.9160   -8.3330 O         1 <0>         0.0000
   3847 WAT       -38.4320  -70.9160   -8.0830 O         1 <0>         0.0000
   3848 WAT       -38.4320  -70.9160   -7.8330 O         1 <0>         0.0000
   3849 WAT       -38.4320  -70.9160   -7.5830 O         1 <0>         0.0000
   3850 WAT       -38.4320  -70.9160   -7.3330 O         1 <0>         0.0000
   3851 WAT       -38.4320  -70.9160   -7.0830 O         1 <0>         0.0000
   3852 WAT       -38.4320  -70.9160   -6.8330 O         1 <0>         0.0000
   3853 WAT       -38.4320  -70.9160   -6.5830 O         1 <0>         0.0000
   3854 WAT       -38.4320  -70.9160   -6.3330 O         1 <0>         0.0000
   3855 WAT       -38.4320  -70.9160   -6.0830 O         1 <0>         0.0000
   3856 WAT       -38.4320  -70.9160   -5.8330 O         1 <0>         0.0000
   3857 WAT       -38.4320  -70.9160   -5.5830 O         1 <0>         0.0000
   3858 WAT       -38.4320  -70.9160   -5.3330 O         1 <0>         0.0000
   3859 WAT       -38.4320  -70.9160   -5.0830 O         1 <0>         0.0000
   3860 WAT       -38.4320  -70.9160   -4.8330 O         1 <0>         0.0000
   3861 WAT       -38.4320  -70.9160   -4.5830 O         1 <0>         0.0000
   3862 WAT       -38.4320  -70.9160   -4.3330 O         1 <0>         0.0000
   3863 WAT       -38.4320  -70.9160   -4.0830 O         1 <0>         0.0000
   3864 WAT       -38.4320  -70.9160   -3.8330 O         1 <0>         0.0000
   3865 WAT       -38.4320  -70.9160   -3.5830 O         1 <0>         0.0000
   3866 WAT       -38.4320  -70.9160   -3.3330 O         1 <0>         0.0000
   3867 WAT       -38.4320  -70.9160   -3.0830 O         1 <0>         0.0000
   3868 WAT       -38.4320  -70.9160   -2.8330 O         1 <0>         0.0000
   3869 WAT       -38.4320  -70.9160   -2.5830 O         1 <0>         0.0000
   3870 WAT       -38.4320  -70.9160   -2.3330 O         1 <0>         0.0000
   3871 WAT       -38.4320  -70.9160   -2.0830 O         1 <0>         0.0000
   3872 WAT       -38.4320  -70.9160   -1.8330 O         1 <0>         0.0000
   3873 WAT       -38.4320  -70.9160   -1.5830 O         1 <0>         0.0000
   3874 WAT       -38.4320  -70.9160   -1.3330 O         1 <0>         0.0000
   3875 WAT       -38.4320  -70.9160   -1.0830 O         1 <0>         0.0000
   3876 WAT       -38.4320  -70.9160   -0.8330 O         1 <0>         0.0000
   3877 WAT       -38.4320  -70.9160   -0.5830 O         1 <0>         0.0000
   3878 WAT       -38.4320  -70.9160   -0.3330 O         1 <0>         0.0000
   3879 WAT       -38.4320  -70.9160   -0.0830 O         1 <0>         0.0000
   3880 WAT       -38.4320  -70.6660   -9.8330 O         1 <0>         0.0000
   3881 WAT       -38.4320  -70.6660   -9.5830 O         1 <0>         0.0000
   3882 WAT       -38.4320  -70.6660   -9.3330 O         1 <0>         0.0000
   3883 WAT       -38.4320  -70.6660   -9.0830 O         1 <0>         0.0000
   3884 WAT       -38.4320  -70.6660   -8.8330 O         1 <0>         0.0000
   3885 WAT       -38.4320  -70.6660   -8.5830 O         1 <0>         0.0000
   3886 WAT       -38.4320  -70.6660   -8.3330 O         1 <0>         0.0000
   3887 WAT       -38.4320  -70.6660   -8.0830 O         1 <0>         0.0000
   3888 WAT       -38.4320  -70.6660   -7.8330 O         1 <0>         0.0000
   3889 WAT       -38.4320  -70.6660   -7.5830 O         1 <0>         0.0000
   3890 WAT       -38.4320  -70.6660   -7.3330 O         1 <0>         0.0000
   3891 WAT       -38.4320  -70.6660   -7.0830 O         1 <0>         0.0000
   3892 WAT       -38.4320  -70.6660   -6.8330 O         1 <0>         0.0000
   3893 WAT       -38.4320  -70.6660   -6.5830 O         1 <0>         0.0000
   3894 WAT       -38.4320  -70.6660   -6.3330 O         1 <0>         0.0000
   3895 WAT       -38.4320  -70.6660   -6.0830 O         1 <0>         0.0000
   3896 WAT       -38.4320  -70.6660   -5.8330 O         1 <0>         0.0000
   3897 WAT       -38.4320  -70.6660   -5.5830 O         1 <0>         0.0000
   3898 WAT       -38.4320  -70.6660   -5.3330 O         1 <0>         0.0000
   3899 WAT       -38.4320  -70.6660   -5.0830 O         1 <0>         0.0000
   3900 WAT       -38.4320  -70.6660   -4.8330 O         1 <0>         0.0000
   3901 WAT       -38.4320  -70.6660   -4.5830 O         1 <0>         0.0000
   3902 WAT       -38.4320  -70.6660   -4.3330 O         1 <0>         0.0000
   3903 WAT       -38.4320  -70.6660   -4.0830 O         1 <0>         0.0000
   3904 WAT       -38.4320  -70.6660   -3.8330 O         1 <0>         0.0000
   3905 WAT       -38.4320  -70.6660   -3.5830 O         1 <0>         0.0000
   3906 WAT       -38.4320  -70.6660   -3.3330 O         1 <0>         0.0000
   3907 WAT       -38.4320  -70.6660   -3.0830 O         1 <0>         0.0000
   3908 WAT       -38.4320  -70.6660   -2.8330 O         1 <0>         0.0000
   3909 WAT       -38.4320  -70.6660   -2.5830 O         1 <0>         0.0000
   3910 WAT       -38.4320  -70.6660   -2.3330 O         1 <0>         0.0000
   3911 WAT       -38.4320  -70.6660   -2.0830 O         1 <0>         0.0000
   3912 WAT       -38.4320  -70.6660   -1.8330 O         1 <0>         0.0000
   3913 WAT       -38.4320  -70.6660   -1.5830 O         1 <0>         0.0000
   3914 WAT       -38.4320  -70.6660   -1.3330 O         1 <0>         0.0000
   3915 WAT       -38.4320  -70.6660   -1.0830 O         1 <0>         0.0000
   3916 WAT       -38.4320  -70.6660   -0.8330 O         1 <0>         0.0000
   3917 WAT       -38.4320  -70.6660   -0.5830 O         1 <0>         0.0000
   3918 WAT       -38.4320  -70.6660   -0.3330 O         1 <0>         0.0000
   3919 WAT       -38.4320  -70.6660   -0.0830 O         1 <0>         0.0000
   3920 WAT       -38.4320  -70.4160   -9.8330 O         1 <0>         0.0000
   3921 WAT       -38.4320  -70.4160   -9.5830 O         1 <0>         0.0000
   3922 WAT       -38.4320  -70.4160   -9.3330 O         1 <0>         0.0000
   3923 WAT       -38.4320  -70.4160   -9.0830 O         1 <0>         0.0000
   3924 WAT       -38.4320  -70.4160   -8.8330 O         1 <0>         0.0000
   3925 WAT       -38.4320  -70.4160   -8.5830 O         1 <0>         0.0000
   3926 WAT       -38.4320  -70.4160   -8.3330 O         1 <0>         0.0000
   3927 WAT       -38.4320  -70.4160   -8.0830 O         1 <0>         0.0000
   3928 WAT       -38.4320  -70.4160   -7.8330 O         1 <0>         0.0000
   3929 WAT       -38.4320  -70.4160   -7.5830 O         1 <0>         0.0000
   3930 WAT       -38.4320  -70.4160   -7.3330 O         1 <0>         0.0000
   3931 WAT       -38.4320  -70.4160   -7.0830 O         1 <0>         0.0000
   3932 WAT       -38.4320  -70.4160   -6.8330 O         1 <0>         0.0000
   3933 WAT       -38.4320  -70.4160   -6.5830 O         1 <0>         0.0000
   3934 WAT       -38.4320  -70.4160   -6.3330 O         1 <0>         0.0000
   3935 WAT       -38.4320  -70.4160   -6.0830 O         1 <0>         0.0000
   3936 WAT       -38.4320  -70.4160   -5.8330 O         1 <0>         0.0000
   3937 WAT       -38.4320  -70.4160   -5.5830 O         1 <0>         0.0000
   3938 WAT       -38.4320  -70.4160   -5.3330 O         1 <0>         0.0000
   3939 WAT       -38.4320  -70.4160   -5.0830 O         1 <0>         0.0000
   3940 WAT       -38.4320  -70.4160   -4.8330 O         1 <0>         0.0000
   3941 WAT       -38.4320  -70.4160   -4.5830 O         1 <0>         0.0000
   3942 WAT       -38.4320  -70.4160   -4.3330 O         1 <0>         0.0000
   3943 WAT       -38.4320  -70.4160   -4.0830 O         1 <0>         0.0000
   3944 WAT       -38.4320  -70.4160   -3.8330 O         1 <0>         0.0000
   3945 WAT       -38.4320  -70.4160   -3.5830 O         1 <0>         0.0000
   3946 WAT       -38.4320  -70.4160   -3.3330 O         1 <0>         0.0000
   3947 WAT       -38.4320  -70.4160   -3.0830 O         1 <0>         0.0000
   3948 WAT       -38.4320  -70.4160   -2.8330 O         1 <0>         0.0000
   3949 WAT       -38.4320  -70.4160   -2.5830 O         1 <0>         0.0000
   3950 WAT       -38.4320  -70.4160   -2.3330 O         1 <0>         0.0000
   3951 WAT       -38.4320  -70.4160   -2.0830 O         1 <0>         0.0000
   3952 WAT       -38.4320  -70.4160   -1.8330 O         1 <0>         0.0000
   3953 WAT       -38.4320  -70.4160   -1.5830 O         1 <0>         0.0000
   3954 WAT       -38.4320  -70.4160   -1.3330 O         1 <0>         0.0000
   3955 WAT       -38.4320  -70.4160   -1.0830 O         1 <0>         0.0000
   3956 WAT       -38.4320  -70.4160   -0.8330 O         1 <0>         0.0000
   3957 WAT       -38.4320  -70.4160   -0.5830 O         1 <0>         0.0000
   3958 WAT       -38.4320  -70.4160   -0.3330 O         1 <0>         0.0000
   3959 WAT       -38.4320  -70.4160   -0.0830 O         1 <0>         0.0000
   3960 WAT       -38.4320  -70.1660   -9.8330 O         1 <0>         0.0000
   3961 WAT       -38.4320  -70.1660   -9.5830 O         1 <0>         0.0000
   3962 WAT       -38.4320  -70.1660   -9.3330 O         1 <0>         0.0000
   3963 WAT       -38.4320  -70.1660   -9.0830 O         1 <0>         0.0000
   3964 WAT       -38.4320  -70.1660   -8.8330 O         1 <0>         0.0000
   3965 WAT       -38.4320  -70.1660   -8.5830 O         1 <0>         0.0000
   3966 WAT       -38.4320  -70.1660   -8.3330 O         1 <0>         0.0000
   3967 WAT       -38.4320  -70.1660   -8.0830 O         1 <0>         0.0000
   3968 WAT       -38.4320  -70.1660   -7.8330 O         1 <0>         0.0000
   3969 WAT       -38.4320  -70.1660   -7.5830 O         1 <0>         0.0000
   3970 WAT       -38.4320  -70.1660   -7.3330 O         1 <0>         0.0000
   3971 WAT       -38.4320  -70.1660   -7.0830 O         1 <0>         0.0000
   3972 WAT       -38.4320  -70.1660   -6.8330 O         1 <0>         0.0000
   3973 WAT       -38.4320  -70.1660   -6.5830 O         1 <0>         0.0000
   3974 WAT       -38.4320  -70.1660   -6.3330 O         1 <0>         0.0000
   3975 WAT       -38.4320  -70.1660   -6.0830 O         1 <0>         0.0000
   3976 WAT       -38.4320  -70.1660   -5.8330 O         1 <0>         0.0000
   3977 WAT       -38.4320  -70.1660   -5.5830 O         1 <0>         0.0000
   3978 WAT       -38.4320  -70.1660   -5.3330 O         1 <0>         0.0000
   3979 WAT       -38.4320  -70.1660   -5.0830 O         1 <0>         0.0000
   3980 WAT       -38.4320  -70.1660   -4.8330 O         1 <0>         0.0000
   3981 WAT       -38.4320  -70.1660   -4.5830 O         1 <0>         0.0000
   3982 WAT       -38.4320  -70.1660   -4.3330 O         1 <0>         0.0000
   3983 WAT       -38.4320  -70.1660   -4.0830 O         1 <0>         0.0000
   3984 WAT       -38.4320  -70.1660   -3.8330 O         1 <0>         0.0000
   3985 WAT       -38.4320  -70.1660   -3.5830 O         1 <0>         0.0000
   3986 WAT       -38.4320  -70.1660   -3.3330 O         1 <0>         0.0000
   3987 WAT       -38.4320  -70.1660   -3.0830 O         1 <0>         0.0000
   3988 WAT       -38.4320  -70.1660   -2.8330 O         1 <0>         0.0000
   3989 WAT       -38.4320  -70.1660   -2.5830 O         1 <0>         0.0000
   3990 WAT       -38.4320  -70.1660   -2.3330 O         1 <0>         0.0000
   3991 WAT       -38.4320  -70.1660   -2.0830 O         1 <0>         0.0000
   3992 WAT       -38.4320  -70.1660   -1.8330 O         1 <0>         0.0000
   3993 WAT       -38.4320  -70.1660   -1.5830 O         1 <0>         0.0000
   3994 WAT       -38.4320  -70.1660   -1.3330 O         1 <0>         0.0000
   3995 WAT       -38.4320  -70.1660   -1.0830 O         1 <0>         0.0000
   3996 WAT       -38.4320  -70.1660   -0.8330 O         1 <0>         0.0000
   3997 WAT       -38.4320  -70.1660   -0.5830 O         1 <0>         0.0000
   3998 WAT       -38.4320  -70.1660   -0.3330 O         1 <0>         0.0000
   3999 WAT       -38.4320  -70.1660   -0.0830 O         1 <0>         0.0000
   4000 WAT       -38.4320  -69.9160   -9.8330 O         1 <0>         0.0000
   4001 WAT       -38.4320  -69.9160   -9.5830 O         1 <0>         0.0000
   4002 WAT       -38.4320  -69.9160   -9.3330 O         1 <0>         0.0000
   4003 WAT       -38.4320  -69.9160   -9.0830 O         1 <0>         0.0000
   4004 WAT       -38.4320  -69.9160   -8.8330 O         1 <0>         0.0000
   4005 WAT       -38.4320  -69.9160   -8.5830 O         1 <0>         0.0000
   4006 WAT       -38.4320  -69.9160   -8.3330 O         1 <0>         0.0000
   4007 WAT       -38.4320  -69.9160   -8.0830 O         1 <0>         0.0000
   4008 WAT       -38.4320  -69.9160   -7.8330 O         1 <0>         0.0000
   4009 WAT       -38.4320  -69.9160   -7.5830 O         1 <0>         0.0000
   4010 WAT       -38.4320  -69.9160   -7.3330 O         1 <0>         0.0000
   4011 WAT       -38.4320  -69.9160   -7.0830 O         1 <0>         0.0000
   4012 WAT       -38.4320  -69.9160   -6.8330 O         1 <0>         0.0000
   4013 WAT       -38.4320  -69.9160   -6.5830 O         1 <0>         0.0000
   4014 WAT       -38.4320  -69.9160   -6.3330 O         1 <0>         0.0000
   4015 WAT       -38.4320  -69.9160   -6.0830 O         1 <0>         0.0000
   4016 WAT       -38.4320  -69.9160   -5.8330 O         1 <0>         0.0000
   4017 WAT       -38.4320  -69.9160   -5.5830 O         1 <0>         0.0000
   4018 WAT       -38.4320  -69.9160   -5.3330 O         1 <0>         0.0000
   4019 WAT       -38.4320  -69.9160   -5.0830 O         1 <0>         0.0000
   4020 WAT       -38.4320  -69.9160   -4.8330 O         1 <0>         0.0000
   4021 WAT       -38.4320  -69.9160   -4.5830 O         1 <0>         0.0000
   4022 WAT       -38.4320  -69.9160   -4.3330 O         1 <0>         0.0000
   4023 WAT       -38.4320  -69.9160   -4.0830 O         1 <0>         0.0000
   4024 WAT       -38.4320  -69.9160   -3.8330 O         1 <0>         0.0000
   4025 WAT       -38.4320  -69.9160   -3.5830 O         1 <0>         0.0000
   4026 WAT       -38.4320  -69.9160   -3.3330 O         1 <0>         0.0000
   4027 WAT       -38.4320  -69.9160   -3.0830 O         1 <0>         0.0000
   4028 WAT       -38.4320  -69.9160   -2.8330 O         1 <0>         0.0000
   4029 WAT       -38.4320  -69.9160   -2.5830 O         1 <0>         0.0000
   4030 WAT       -38.4320  -69.9160   -2.3330 O         1 <0>         0.0000
   4031 WAT       -38.4320  -69.9160   -2.0830 O         1 <0>         0.0000
   4032 WAT       -38.4320  -69.9160   -1.8330 O         1 <0>         0.0000
   4033 WAT       -38.4320  -69.9160   -1.5830 O         1 <0>         0.0000
   4034 WAT       -38.4320  -69.9160   -1.3330 O         1 <0>         0.0000
   4035 WAT       -38.4320  -69.9160   -1.0830 O         1 <0>         0.0000
   4036 WAT       -38.4320  -69.9160   -0.8330 O         1 <0>         0.0000
   4037 WAT       -38.4320  -69.9160   -0.5830 O         1 <0>         0.0000
   4038 WAT       -38.4320  -69.9160   -0.3330 O         1 <0>         0.0000
   4039 WAT       -38.4320  -69.9160   -0.0830 O         1 <0>         0.0000
   4040 WAT       -38.4320  -69.6660   -9.8330 O         1 <0>         0.0000
   4041 WAT       -38.4320  -69.6660   -9.5830 O         1 <0>         0.0000
   4042 WAT       -38.4320  -69.6660   -9.3330 O         1 <0>         0.0000
   4043 WAT       -38.4320  -69.6660   -9.0830 O         1 <0>         0.0000
   4044 WAT       -38.4320  -69.6660   -8.8330 O         1 <0>         0.0000
   4045 WAT       -38.4320  -69.6660   -8.5830 O         1 <0>         0.0000
   4046 WAT       -38.4320  -69.6660   -8.3330 O         1 <0>         0.0000
   4047 WAT       -38.4320  -69.6660   -8.0830 O         1 <0>         0.0000
   4048 WAT       -38.4320  -69.6660   -7.8330 O         1 <0>         0.0000
   4049 WAT       -38.4320  -69.6660   -7.5830 O         1 <0>         0.0000
   4050 WAT       -38.4320  -69.6660   -7.3330 O         1 <0>         0.0000
   4051 WAT       -38.4320  -69.6660   -7.0830 O         1 <0>         0.0000
   4052 WAT       -38.4320  -69.6660   -6.8330 O         1 <0>         0.0000
   4053 WAT       -38.4320  -69.6660   -6.5830 O         1 <0>         0.0000
   4054 WAT       -38.4320  -69.6660   -6.3330 O         1 <0>         0.0000
   4055 WAT       -38.4320  -69.6660   -6.0830 O         1 <0>         0.0000
   4056 WAT       -38.4320  -69.6660   -5.8330 O         1 <0>         0.0000
   4057 WAT       -38.4320  -69.6660   -5.5830 O         1 <0>         0.0000
   4058 WAT       -38.4320  -69.6660   -5.3330 O         1 <0>         0.0000
   4059 WAT       -38.4320  -69.6660   -5.0830 O         1 <0>         0.0000
   4060 WAT       -38.4320  -69.6660   -4.8330 O         1 <0>         0.0000
   4061 WAT       -38.4320  -69.6660   -4.5830 O         1 <0>         0.0000
   4062 WAT       -38.4320  -69.6660   -4.3330 O         1 <0>         0.0000
   4063 WAT       -38.4320  -69.6660   -4.0830 O         1 <0>         0.0000
   4064 WAT       -38.4320  -69.6660   -3.8330 O         1 <0>         0.0000
   4065 WAT       -38.4320  -69.6660   -3.5830 O         1 <0>         0.0000
   4066 WAT       -38.4320  -69.6660   -3.3330 O         1 <0>         0.0000
   4067 WAT       -38.4320  -69.6660   -3.0830 O         1 <0>         0.0000
   4068 WAT       -38.4320  -69.6660   -2.8330 O         1 <0>         0.0000
   4069 WAT       -38.4320  -69.6660   -2.5830 O         1 <0>         0.0000
   4070 WAT       -38.4320  -69.6660   -2.3330 O         1 <0>         0.0000
   4071 WAT       -38.4320  -69.6660   -2.0830 O         1 <0>         0.0000
   4072 WAT       -38.4320  -69.6660   -1.8330 O         1 <0>         0.0000
   4073 WAT       -38.4320  -69.6660   -1.5830 O         1 <0>         0.0000
   4074 WAT       -38.4320  -69.6660   -1.3330 O         1 <0>         0.0000
   4075 WAT       -38.4320  -69.6660   -1.0830 O         1 <0>         0.0000
   4076 WAT       -38.4320  -69.6660   -0.8330 O         1 <0>         0.0000
   4077 WAT       -38.4320  -69.6660   -0.5830 O         1 <0>         0.0000
   4078 WAT       -38.4320  -69.6660   -0.3330 O         1 <0>         0.0000
   4079 WAT       -38.4320  -69.6660   -0.0830 O         1 <0>         0.0000
   4080 WAT       -38.4320  -69.4160   -9.8330 O         1 <0>         0.0000
   4081 WAT       -38.4320  -69.4160   -9.5830 O         1 <0>         0.0000
   4082 WAT       -38.4320  -69.4160   -9.3330 O         1 <0>         0.0000
   4083 WAT       -38.4320  -69.4160   -9.0830 O         1 <0>         0.0000
   4084 WAT       -38.4320  -69.4160   -8.8330 O         1 <0>         0.0000
   4085 WAT       -38.4320  -69.4160   -8.5830 O         1 <0>         0.0000
   4086 WAT       -38.4320  -69.4160   -8.3330 O         1 <0>         0.0000
   4087 WAT       -38.4320  -69.4160   -8.0830 O         1 <0>         0.0000
   4088 WAT       -38.4320  -69.4160   -7.8330 O         1 <0>         0.0000
   4089 WAT       -38.4320  -69.4160   -7.5830 O         1 <0>         0.0000
   4090 WAT       -38.4320  -69.4160   -7.3330 O         1 <0>         0.0000
   4091 WAT       -38.4320  -69.4160   -7.0830 O         1 <0>         0.0000
   4092 WAT       -38.4320  -69.4160   -6.8330 O         1 <0>         0.0000
   4093 WAT       -38.4320  -69.4160   -6.5830 O         1 <0>         0.0000
   4094 WAT       -38.4320  -69.4160   -6.3330 O         1 <0>         0.0000
   4095 WAT       -38.4320  -69.4160   -6.0830 O         1 <0>         0.0000
   4096 WAT       -38.4320  -69.4160   -5.8330 O         1 <0>         0.0000
   4097 WAT       -38.4320  -69.4160   -5.5830 O         1 <0>         0.0000
   4098 WAT       -38.4320  -69.4160   -5.3330 O         1 <0>         0.0000
   4099 WAT       -38.4320  -69.4160   -5.0830 O         1 <0>         0.0000
   4100 WAT       -38.4320  -69.4160   -4.8330 O         1 <0>         0.0000
   4101 WAT       -38.4320  -69.4160   -4.5830 O         1 <0>         0.0000
   4102 WAT       -38.4320  -69.4160   -4.3330 O         1 <0>         0.0000
   4103 WAT       -38.4320  -69.4160   -4.0830 O         1 <0>         0.0000
   4104 WAT       -38.4320  -69.4160   -3.8330 O         1 <0>         0.0000
   4105 WAT       -38.4320  -69.4160   -3.5830 O         1 <0>         0.0000
   4106 WAT       -38.4320  -69.4160   -3.3330 O         1 <0>         0.0000
   4107 WAT       -38.4320  -69.4160   -3.0830 O         1 <0>         0.0000
   4108 WAT       -38.4320  -69.4160   -2.8330 O         1 <0>         0.0000
   4109 WAT       -38.4320  -69.4160   -2.5830 O         1 <0>         0.0000
   4110 WAT       -38.4320  -69.4160   -2.3330 O         1 <0>         0.0000
   4111 WAT       -38.4320  -69.4160   -2.0830 O         1 <0>         0.0000
   4112 WAT       -38.4320  -69.4160   -1.8330 O         1 <0>         0.0000
   4113 WAT       -38.4320  -69.4160   -1.5830 O         1 <0>         0.0000
   4114 WAT       -38.4320  -69.4160   -1.3330 O         1 <0>         0.0000
   4115 WAT       -38.4320  -69.4160   -1.0830 O         1 <0>         0.0000
   4116 WAT       -38.4320  -69.4160   -0.8330 O         1 <0>         0.0000
   4117 WAT       -38.4320  -69.4160   -0.5830 O         1 <0>         0.0000
   4118 WAT       -38.4320  -69.4160   -0.3330 O         1 <0>         0.0000
   4119 WAT       -38.4320  -69.4160   -0.0830 O         1 <0>         0.0000
   4120 WAT       -38.4320  -69.1660   -9.8330 O         1 <0>         0.0000
   4121 WAT       -38.4320  -69.1660   -9.5830 O         1 <0>         0.0000
   4122 WAT       -38.4320  -69.1660   -9.3330 O         1 <0>         0.0000
   4123 WAT       -38.4320  -69.1660   -9.0830 O         1 <0>         0.0000
   4124 WAT       -38.4320  -69.1660   -8.8330 O         1 <0>         0.0000
   4125 WAT       -38.4320  -69.1660   -8.5830 O         1 <0>         0.0000
   4126 WAT       -38.4320  -69.1660   -8.3330 O         1 <0>         0.0000
   4127 WAT       -38.4320  -69.1660   -8.0830 O         1 <0>         0.0000
   4128 WAT       -38.4320  -69.1660   -7.8330 O         1 <0>         0.0000
   4129 WAT       -38.4320  -69.1660   -7.5830 O         1 <0>         0.0000
   4130 WAT       -38.4320  -69.1660   -7.3330 O         1 <0>         0.0000
   4131 WAT       -38.4320  -69.1660   -7.0830 O         1 <0>         0.0000
   4132 WAT       -38.4320  -69.1660   -6.8330 O         1 <0>         0.0000
   4133 WAT       -38.4320  -69.1660   -6.5830 O         1 <0>         0.0000
   4134 WAT       -38.4320  -69.1660   -6.3330 O         1 <0>         0.0000
   4135 WAT       -38.4320  -69.1660   -6.0830 O         1 <0>         0.0000
   4136 WAT       -38.4320  -69.1660   -5.8330 O         1 <0>         0.0000
   4137 WAT       -38.4320  -69.1660   -5.5830 O         1 <0>         0.0000
   4138 WAT       -38.4320  -69.1660   -5.3330 O         1 <0>         0.0000
   4139 WAT       -38.4320  -69.1660   -5.0830 O         1 <0>         0.0000
   4140 WAT       -38.4320  -69.1660   -4.8330 O         1 <0>         0.0000
   4141 WAT       -38.4320  -69.1660   -4.5830 O         1 <0>         0.0000
   4142 WAT       -38.4320  -69.1660   -4.3330 O         1 <0>         0.0000
   4143 WAT       -38.4320  -69.1660   -4.0830 O         1 <0>         0.0000
   4144 WAT       -38.4320  -69.1660   -3.8330 O         1 <0>         0.0000
   4145 WAT       -38.4320  -69.1660   -3.5830 O         1 <0>         0.0000
   4146 WAT       -38.4320  -69.1660   -3.3330 O         1 <0>         0.0000
   4147 WAT       -38.4320  -69.1660   -3.0830 O         1 <0>         0.0000
   4148 WAT       -38.4320  -69.1660   -2.8330 O         1 <0>         0.0000
   4149 WAT       -38.4320  -69.1660   -2.5830 O         1 <0>         0.0000
   4150 WAT       -38.4320  -69.1660   -2.3330 O         1 <0>         0.0000
   4151 WAT       -38.4320  -69.1660   -2.0830 O         1 <0>         0.0000
   4152 WAT       -38.4320  -69.1660   -1.8330 O         1 <0>         0.0000
   4153 WAT       -38.4320  -69.1660   -1.5830 O         1 <0>         0.0000
   4154 WAT       -38.4320  -69.1660   -1.3330 O         1 <0>         0.0000
   4155 WAT       -38.4320  -69.1660   -1.0830 O         1 <0>         0.0000
   4156 WAT       -38.4320  -69.1660   -0.8330 O         1 <0>         0.0000
   4157 WAT       -38.4320  -69.1660   -0.5830 O         1 <0>         0.0000
   4158 WAT       -38.4320  -69.1660   -0.3330 O         1 <0>         0.0000
   4159 WAT       -38.4320  -69.1660   -0.0830 O         1 <0>         0.0000
   4160 WAT       -38.4320  -68.9160   -9.8330 O         1 <0>         0.0000
   4161 WAT       -38.4320  -68.9160   -9.5830 O         1 <0>         0.0000
   4162 WAT       -38.4320  -68.9160   -9.3330 O         1 <0>         0.0000
   4163 WAT       -38.4320  -68.9160   -9.0830 O         1 <0>         0.0000
   4164 WAT       -38.4320  -68.9160   -8.8330 O         1 <0>         0.0000
   4165 WAT       -38.4320  -68.9160   -8.5830 O         1 <0>         0.0000
   4166 WAT       -38.4320  -68.9160   -8.3330 O         1 <0>         0.0000
   4167 WAT       -38.4320  -68.9160   -8.0830 O         1 <0>         0.0000
   4168 WAT       -38.4320  -68.9160   -7.8330 O         1 <0>         0.0000
   4169 WAT       -38.4320  -68.9160   -7.5830 O         1 <0>         0.0000
   4170 WAT       -38.4320  -68.9160   -7.3330 O         1 <0>         0.0000
   4171 WAT       -38.4320  -68.9160   -7.0830 O         1 <0>         0.0000
   4172 WAT       -38.4320  -68.9160   -6.8330 O         1 <0>         0.0000
   4173 WAT       -38.4320  -68.9160   -6.5830 O         1 <0>         0.0000
   4174 WAT       -38.4320  -68.9160   -6.3330 O         1 <0>         0.0000
   4175 WAT       -38.4320  -68.9160   -6.0830 O         1 <0>         0.0000
   4176 WAT       -38.4320  -68.9160   -5.8330 O         1 <0>         0.0000
   4177 WAT       -38.4320  -68.9160   -5.5830 O         1 <0>         0.0000
   4178 WAT       -38.4320  -68.9160   -5.3330 O         1 <0>         0.0000
   4179 WAT       -38.4320  -68.9160   -5.0830 O         1 <0>         0.0000
   4180 WAT       -38.4320  -68.9160   -4.8330 O         1 <0>         0.0000
   4181 WAT       -38.4320  -68.9160   -4.5830 O         1 <0>         0.0000
   4182 WAT       -38.4320  -68.9160   -4.3330 O         1 <0>         0.0000
   4183 WAT       -38.4320  -68.9160   -4.0830 O         1 <0>         0.0000
   4184 WAT       -38.4320  -68.9160   -3.8330 O         1 <0>         0.0000
   4185 WAT       -38.4320  -68.9160   -3.5830 O         1 <0>         0.0000
   4186 WAT       -38.4320  -68.9160   -3.3330 O         1 <0>         0.0000
   4187 WAT       -38.4320  -68.9160   -3.0830 O         1 <0>         0.0000
   4188 WAT       -38.4320  -68.9160   -2.8330 O         1 <0>         0.0000
   4189 WAT       -38.4320  -68.9160   -2.5830 O         1 <0>         0.0000
   4190 WAT       -38.4320  -68.9160   -2.3330 O         1 <0>         0.0000
   4191 WAT       -38.4320  -68.9160   -2.0830 O         1 <0>         0.0000
   4192 WAT       -38.4320  -68.9160   -1.8330 O         1 <0>         0.0000
   4193 WAT       -38.4320  -68.9160   -1.5830 O         1 <0>         0.0000
   4194 WAT       -38.4320  -68.9160   -1.3330 O         1 <0>         0.0000
   4195 WAT       -38.4320  -68.9160   -1.0830 O         1 <0>         0.0000
   4196 WAT       -38.4320  -68.9160   -0.8330 O         1 <0>         0.0000
   4197 WAT       -38.4320  -68.9160   -0.5830 O         1 <0>         0.0000
   4198 WAT       -38.4320  -68.9160   -0.3330 O         1 <0>         0.0000
   4199 WAT       -38.4320  -68.9160   -0.0830 O         1 <0>         0.0000
   4200 WAT       -38.1820  -77.4160   -9.8330 O         1 <0>         0.0000
   4201 WAT       -38.1820  -77.4160   -9.5830 O         1 <0>         0.0000
   4202 WAT       -38.1820  -77.4160   -9.3330 O         1 <0>         0.0000
   4203 WAT       -38.1820  -77.4160   -9.0830 O         1 <0>         0.0000
   4204 WAT       -38.1820  -77.4160   -8.8330 O         1 <0>         0.0000
   4205 WAT       -38.1820  -77.4160   -8.5830 O         1 <0>         0.0000
   4206 WAT       -38.1820  -77.4160   -8.3330 O         1 <0>         0.0000
   4207 WAT       -38.1820  -77.4160   -8.0830 O         1 <0>         0.0000
   4208 WAT       -38.1820  -77.4160   -7.8330 O         1 <0>         0.0000
   4209 WAT       -38.1820  -77.4160   -7.5830 O         1 <0>         0.0000
   4210 WAT       -38.1820  -77.4160   -7.3330 O         1 <0>         0.0000
   4211 WAT       -38.1820  -77.4160   -7.0830 O         1 <0>         0.0000
   4212 WAT       -38.1820  -77.4160   -6.8330 O         1 <0>         0.0000
   4213 WAT       -38.1820  -77.4160   -6.5830 O         1 <0>         0.0000
   4214 WAT       -38.1820  -77.4160   -6.3330 O         1 <0>         0.0000
   4215 WAT       -38.1820  -77.4160   -6.0830 O         1 <0>         0.0000
   4216 WAT       -38.1820  -77.4160   -5.8330 O         1 <0>         0.0000
   4217 WAT       -38.1820  -77.4160   -5.5830 O         1 <0>         0.0000
   4218 WAT       -38.1820  -77.4160   -5.3330 O         1 <0>         0.0000
   4219 WAT       -38.1820  -77.4160   -5.0830 O         1 <0>         0.0000
   4220 WAT       -38.1820  -77.4160   -4.8330 O         1 <0>         0.0000
   4221 WAT       -38.1820  -77.4160   -4.5830 O         1 <0>         0.0000
   4222 WAT       -38.1820  -77.4160   -4.3330 O         1 <0>         0.0000
   4223 WAT       -38.1820  -77.4160   -4.0830 O         1 <0>         0.0000
   4224 WAT       -38.1820  -77.4160   -3.8330 O         1 <0>         0.0000
   4225 WAT       -38.1820  -77.4160   -3.5830 O         1 <0>         0.0000
   4226 WAT       -38.1820  -77.4160   -3.3330 O         1 <0>         0.0000
   4227 WAT       -38.1820  -77.4160   -3.0830 O         1 <0>         0.0000
   4228 WAT       -38.1820  -77.4160   -2.8330 O         1 <0>         0.0000
   4229 WAT       -38.1820  -77.4160   -2.5830 O         1 <0>         0.0000
   4230 WAT       -38.1820  -77.4160   -2.3330 O         1 <0>         0.0000
   4231 WAT       -38.1820  -77.4160   -2.0830 O         1 <0>         0.0000
   4232 WAT       -38.1820  -77.4160   -1.8330 O         1 <0>         0.0000
   4233 WAT       -38.1820  -77.4160   -1.5830 O         1 <0>         0.0000
   4234 WAT       -38.1820  -77.4160   -1.3330 O         1 <0>         0.0000
   4235 WAT       -38.1820  -77.4160   -1.0830 O         1 <0>         0.0000
   4236 WAT       -38.1820  -77.4160   -0.8330 O         1 <0>         0.0000
   4237 WAT       -38.1820  -77.4160   -0.5830 O         1 <0>         0.0000
   4238 WAT       -38.1820  -77.4160   -0.3330 O         1 <0>         0.0000
   4239 WAT       -38.1820  -77.4160   -0.0830 O         1 <0>         0.0000
   4240 WAT       -38.1820  -77.1660   -9.8330 O         1 <0>         0.0000
   4241 WAT       -38.1820  -77.1660   -9.5830 O         1 <0>         0.0000
   4242 WAT       -38.1820  -77.1660   -9.3330 O         1 <0>         0.0000
   4243 WAT       -38.1820  -77.1660   -9.0830 O         1 <0>         0.0000
   4244 WAT       -38.1820  -77.1660   -8.8330 O         1 <0>         0.0000
   4245 WAT       -38.1820  -77.1660   -8.5830 O         1 <0>         0.0000
   4246 WAT       -38.1820  -77.1660   -8.3330 O         1 <0>         0.0000
   4247 WAT       -38.1820  -77.1660   -8.0830 O         1 <0>         0.0000
   4248 WAT       -38.1820  -77.1660   -7.8330 O         1 <0>         0.0000
   4249 WAT       -38.1820  -77.1660   -7.5830 O         1 <0>         0.0000
   4250 WAT       -38.1820  -77.1660   -7.3330 O         1 <0>         0.0000
   4251 WAT       -38.1820  -77.1660   -7.0830 O         1 <0>         0.0000
   4252 WAT       -38.1820  -77.1660   -6.8330 O         1 <0>         0.0000
   4253 WAT       -38.1820  -77.1660   -6.5830 O         1 <0>         0.0000
   4254 WAT       -38.1820  -77.1660   -6.3330 O         1 <0>         0.0000
   4255 WAT       -38.1820  -77.1660   -6.0830 O         1 <0>         0.0000
   4256 WAT       -38.1820  -77.1660   -5.8330 O         1 <0>         0.0000
   4257 WAT       -38.1820  -77.1660   -5.5830 O         1 <0>         0.0000
   4258 WAT       -38.1820  -77.1660   -5.3330 O         1 <0>         0.0000
   4259 WAT       -38.1820  -77.1660   -5.0830 O         1 <0>         0.0000
   4260 WAT       -38.1820  -77.1660   -4.8330 O         1 <0>         0.0000
   4261 WAT       -38.1820  -77.1660   -4.5830 O         1 <0>         0.0000
   4262 WAT       -38.1820  -77.1660   -4.3330 O         1 <0>         0.0000
   4263 WAT       -38.1820  -77.1660   -4.0830 O         1 <0>         0.0000
   4264 WAT       -38.1820  -77.1660   -3.8330 O         1 <0>         0.0000
   4265 WAT       -38.1820  -77.1660   -3.5830 O         1 <0>         0.0000
   4266 WAT       -38.1820  -77.1660   -3.3330 O         1 <0>         0.0000
   4267 WAT       -38.1820  -77.1660   -3.0830 O         1 <0>         0.0000
   4268 WAT       -38.1820  -77.1660   -2.8330 O         1 <0>         0.0000
   4269 WAT       -38.1820  -77.1660   -2.5830 O         1 <0>         0.0000
   4270 WAT       -38.1820  -77.1660   -2.3330 O         1 <0>         0.0000
   4271 WAT       -38.1820  -77.1660   -2.0830 O         1 <0>         0.0000
   4272 WAT       -38.1820  -77.1660   -1.8330 O         1 <0>         0.0000
   4273 WAT       -38.1820  -77.1660   -1.5830 O         1 <0>         0.0000
   4274 WAT       -38.1820  -77.1660   -1.3330 O         1 <0>         0.0000
   4275 WAT       -38.1820  -77.1660   -1.0830 O         1 <0>         0.0000
   4276 WAT       -38.1820  -77.1660   -0.8330 O         1 <0>         0.0000
   4277 WAT       -38.1820  -77.1660   -0.5830 O         1 <0>         0.0000
   4278 WAT       -38.1820  -77.1660   -0.3330 O         1 <0>         0.0000
   4279 WAT       -38.1820  -77.1660   -0.0830 O         1 <0>         0.0000
   4280 WAT       -38.1820  -76.9160   -9.8330 O         1 <0>         0.0000
   4281 WAT       -38.1820  -76.9160   -9.5830 O         1 <0>         0.0000
   4282 WAT       -38.1820  -76.9160   -9.3330 O         1 <0>         0.0000
   4283 WAT       -38.1820  -76.9160   -9.0830 O         1 <0>         0.0000
   4284 WAT       -38.1820  -76.9160   -8.8330 O         1 <0>         0.0000
   4285 WAT       -38.1820  -76.9160   -8.5830 O         1 <0>         0.0000
   4286 WAT       -38.1820  -76.9160   -8.3330 O         1 <0>         0.0000
   4287 WAT       -38.1820  -76.9160   -8.0830 O         1 <0>         0.0000
   4288 WAT       -38.1820  -76.9160   -7.8330 O         1 <0>         0.0000
   4289 WAT       -38.1820  -76.9160   -7.5830 O         1 <0>         0.0000
   4290 WAT       -38.1820  -76.9160   -7.3330 O         1 <0>         0.0000
   4291 WAT       -38.1820  -76.9160   -7.0830 O         1 <0>         0.0000
   4292 WAT       -38.1820  -76.9160   -6.8330 O         1 <0>         0.0000
   4293 WAT       -38.1820  -76.9160   -6.5830 O         1 <0>         0.0000
   4294 WAT       -38.1820  -76.9160   -6.3330 O         1 <0>         0.0000
   4295 WAT       -38.1820  -76.9160   -6.0830 O         1 <0>         0.0000
   4296 WAT       -38.1820  -76.9160   -5.8330 O         1 <0>         0.0000
   4297 WAT       -38.1820  -76.9160   -5.5830 O         1 <0>         0.0000
   4298 WAT       -38.1820  -76.9160   -5.3330 O         1 <0>         0.0000
   4299 WAT       -38.1820  -76.9160   -5.0830 O         1 <0>         0.0000
   4300 WAT       -38.1820  -76.9160   -4.8330 O         1 <0>         0.0000
   4301 WAT       -38.1820  -76.9160   -4.5830 O         1 <0>         0.0000
   4302 WAT       -38.1820  -76.9160   -4.3330 O         1 <0>         0.0000
   4303 WAT       -38.1820  -76.9160   -4.0830 O         1 <0>         0.0000
   4304 WAT       -38.1820  -76.9160   -3.8330 O         1 <0>         0.0000
   4305 WAT       -38.1820  -76.9160   -3.5830 O         1 <0>         0.0000
   4306 WAT       -38.1820  -76.9160   -3.3330 O         1 <0>         0.0000
   4307 WAT       -38.1820  -76.9160   -3.0830 O         1 <0>         0.0000
   4308 WAT       -38.1820  -76.9160   -2.8330 O         1 <0>         0.0000
   4309 WAT       -38.1820  -76.9160   -2.5830 O         1 <0>         0.0000
   4310 WAT       -38.1820  -76.9160   -2.3330 O         1 <0>         0.0000
   4311 WAT       -38.1820  -76.9160   -2.0830 O         1 <0>         0.0000
   4312 WAT       -38.1820  -76.9160   -1.8330 O         1 <0>         0.0000
   4313 WAT       -38.1820  -76.9160   -1.5830 O         1 <0>         0.0000
   4314 WAT       -38.1820  -76.9160   -1.3330 O         1 <0>         0.0000
   4315 WAT       -38.1820  -76.9160   -1.0830 O         1 <0>         0.0000
   4316 WAT       -38.1820  -76.9160   -0.8330 O         1 <0>         0.0000
   4317 WAT       -38.1820  -76.9160   -0.5830 O         1 <0>         0.0000
   4318 WAT       -38.1820  -76.9160   -0.3330 O         1 <0>         0.0000
   4319 WAT       -38.1820  -76.9160   -0.0830 O         1 <0>         0.0000
   4320 WAT       -38.1820  -76.6660   -9.8330 O         1 <0>         0.0000
   4321 WAT       -38.1820  -76.6660   -9.5830 O         1 <0>         0.0000
   4322 WAT       -38.1820  -76.6660   -9.3330 O         1 <0>         0.0000
   4323 WAT       -38.1820  -76.6660   -9.0830 O         1 <0>         0.0000
   4324 WAT       -38.1820  -76.6660   -8.8330 O         1 <0>         0.0000
   4325 WAT       -38.1820  -76.6660   -8.5830 O         1 <0>         0.0000
   4326 WAT       -38.1820  -76.6660   -8.3330 O         1 <0>         0.0000
   4327 WAT       -38.1820  -76.6660   -8.0830 O         1 <0>         0.0000
   4328 WAT       -38.1820  -76.6660   -7.8330 O         1 <0>         0.0000
   4329 WAT       -38.1820  -76.6660   -7.5830 O         1 <0>         0.0000
   4330 WAT       -38.1820  -76.6660   -7.3330 O         1 <0>         0.0000
   4331 WAT       -38.1820  -76.6660   -7.0830 O         1 <0>         0.0000
   4332 WAT       -38.1820  -76.6660   -6.8330 O         1 <0>         0.0000
   4333 WAT       -38.1820  -76.6660   -6.5830 O         1 <0>         0.0000
   4334 WAT       -38.1820  -76.6660   -6.3330 O         1 <0>         0.0000
   4335 WAT       -38.1820  -76.6660   -6.0830 O         1 <0>         0.0000
   4336 WAT       -38.1820  -76.6660   -5.8330 O         1 <0>         0.0000
   4337 WAT       -38.1820  -76.6660   -5.5830 O         1 <0>         0.0000
   4338 WAT       -38.1820  -76.6660   -5.3330 O         1 <0>         0.0000
   4339 WAT       -38.1820  -76.6660   -5.0830 O         1 <0>         0.0000
   4340 WAT       -38.1820  -76.6660   -4.8330 O         1 <0>         0.0000
   4341 WAT       -38.1820  -76.6660   -4.5830 O         1 <0>         0.0000
   4342 WAT       -38.1820  -76.6660   -4.3330 O         1 <0>         0.0000
   4343 WAT       -38.1820  -76.6660   -4.0830 O         1 <0>         0.0000
   4344 WAT       -38.1820  -76.6660   -3.8330 O         1 <0>         0.0000
   4345 WAT       -38.1820  -76.6660   -3.5830 O         1 <0>         0.0000
   4346 WAT       -38.1820  -76.6660   -3.3330 O         1 <0>         0.0000
   4347 WAT       -38.1820  -76.6660   -3.0830 O         1 <0>         0.0000
   4348 WAT       -38.1820  -76.6660   -2.8330 O         1 <0>         0.0000
   4349 WAT       -38.1820  -76.6660   -2.5830 O         1 <0>         0.0000
   4350 WAT       -38.1820  -76.6660   -2.3330 O         1 <0>         0.0000
   4351 WAT       -38.1820  -76.6660   -2.0830 O         1 <0>         0.0000
   4352 WAT       -38.1820  -76.6660   -1.8330 O         1 <0>         0.0000
   4353 WAT       -38.1820  -76.6660   -1.5830 O         1 <0>         0.0000
   4354 WAT       -38.1820  -76.6660   -1.3330 O         1 <0>         0.0000
   4355 WAT       -38.1820  -76.6660   -1.0830 O         1 <0>         0.0000
   4356 WAT       -38.1820  -76.6660   -0.8330 O         1 <0>         0.0000
   4357 WAT       -38.1820  -76.6660   -0.5830 O         1 <0>         0.0000
   4358 WAT       -38.1820  -76.6660   -0.3330 O         1 <0>         0.0000
   4359 WAT       -38.1820  -76.6660   -0.0830 O         1 <0>         0.0000
   4360 WAT       -38.1820  -76.4160   -9.8330 O         1 <0>         0.0000
   4361 WAT       -38.1820  -76.4160   -9.5830 O         1 <0>         0.0000
   4362 WAT       -38.1820  -76.4160   -9.3330 O         1 <0>         0.0000
   4363 WAT       -38.1820  -76.4160   -9.0830 O         1 <0>         0.0000
   4364 WAT       -38.1820  -76.4160   -8.8330 O         1 <0>         0.0000
   4365 WAT       -38.1820  -76.4160   -8.5830 O         1 <0>         0.0000
   4366 WAT       -38.1820  -76.4160   -8.3330 O         1 <0>         0.0000
   4367 WAT       -38.1820  -76.4160   -8.0830 O         1 <0>         0.0000
   4368 WAT       -38.1820  -76.4160   -7.8330 O         1 <0>         0.0000
   4369 WAT       -38.1820  -76.4160   -7.5830 O         1 <0>         0.0000
   4370 WAT       -38.1820  -76.4160   -7.3330 O         1 <0>         0.0000
   4371 WAT       -38.1820  -76.4160   -7.0830 O         1 <0>         0.0000
   4372 WAT       -38.1820  -76.4160   -6.8330 O         1 <0>         0.0000
   4373 WAT       -38.1820  -76.4160   -6.5830 O         1 <0>         0.0000
   4374 WAT       -38.1820  -76.4160   -6.3330 O         1 <0>         0.0000
   4375 WAT       -38.1820  -76.4160   -6.0830 O         1 <0>         0.0000
   4376 WAT       -38.1820  -76.4160   -5.8330 O         1 <0>         0.0000
   4377 WAT       -38.1820  -76.4160   -5.5830 O         1 <0>         0.0000
   4378 WAT       -38.1820  -76.4160   -5.3330 O         1 <0>         0.0000
   4379 WAT       -38.1820  -76.4160   -5.0830 O         1 <0>         0.0000
   4380 WAT       -38.1820  -76.4160   -4.8330 O         1 <0>         0.0000
   4381 WAT       -38.1820  -76.4160   -4.5830 O         1 <0>         0.0000
   4382 WAT       -38.1820  -76.4160   -4.3330 O         1 <0>         0.0000
   4383 WAT       -38.1820  -76.4160   -4.0830 O         1 <0>         0.0000
   4384 WAT       -38.1820  -76.4160   -3.8330 O         1 <0>         0.0000
   4385 WAT       -38.1820  -76.4160   -3.5830 O         1 <0>         0.0000
   4386 WAT       -38.1820  -76.4160   -3.3330 O         1 <0>         0.0000
   4387 WAT       -38.1820  -76.4160   -3.0830 O         1 <0>         0.0000
   4388 WAT       -38.1820  -76.4160   -2.8330 O         1 <0>         0.0000
   4389 WAT       -38.1820  -76.4160   -2.5830 O         1 <0>         0.0000
   4390 WAT       -38.1820  -76.4160   -2.3330 O         1 <0>         0.0000
   4391 WAT       -38.1820  -76.4160   -2.0830 O         1 <0>         0.0000
   4392 WAT       -38.1820  -76.4160   -1.8330 O         1 <0>         0.0000
   4393 WAT       -38.1820  -76.4160   -1.5830 O         1 <0>         0.0000
   4394 WAT       -38.1820  -76.4160   -1.3330 O         1 <0>         0.0000
   4395 WAT       -38.1820  -76.4160   -1.0830 O         1 <0>         0.0000
   4396 WAT       -38.1820  -76.4160   -0.8330 O         1 <0>         0.0000
   4397 WAT       -38.1820  -76.4160   -0.5830 O         1 <0>         0.0000
   4398 WAT       -38.1820  -76.4160   -0.3330 O         1 <0>         0.0000
   4399 WAT       -38.1820  -76.4160   -0.0830 O         1 <0>         0.0000
   4400 WAT       -38.1820  -76.1660   -9.8330 O         1 <0>         0.0000
   4401 WAT       -38.1820  -76.1660   -9.5830 O         1 <0>         0.0000
   4402 WAT       -38.1820  -76.1660   -9.3330 O         1 <0>         0.0000
   4403 WAT       -38.1820  -76.1660   -9.0830 O         1 <0>         0.0000
   4404 WAT       -38.1820  -76.1660   -8.8330 O         1 <0>         0.0000
   4405 WAT       -38.1820  -76.1660   -8.5830 O         1 <0>         0.0000
   4406 WAT       -38.1820  -76.1660   -8.3330 O         1 <0>         0.0000
   4407 WAT       -38.1820  -76.1660   -8.0830 O         1 <0>         0.0000
   4408 WAT       -38.1820  -76.1660   -7.8330 O         1 <0>         0.0000
   4409 WAT       -38.1820  -76.1660   -7.5830 O         1 <0>         0.0000
   4410 WAT       -38.1820  -76.1660   -7.3330 O         1 <0>         0.0000
   4411 WAT       -38.1820  -76.1660   -7.0830 O         1 <0>         0.0000
   4412 WAT       -38.1820  -76.1660   -6.8330 O         1 <0>         0.0000
   4413 WAT       -38.1820  -76.1660   -6.5830 O         1 <0>         0.0000
   4414 WAT       -38.1820  -76.1660   -6.3330 O         1 <0>         0.0000
   4415 WAT       -38.1820  -76.1660   -6.0830 O         1 <0>         0.0000
   4416 WAT       -38.1820  -76.1660   -5.8330 O         1 <0>         0.0000
   4417 WAT       -38.1820  -76.1660   -5.5830 O         1 <0>         0.0000
   4418 WAT       -38.1820  -76.1660   -5.3330 O         1 <0>         0.0000
   4419 WAT       -38.1820  -76.1660   -5.0830 O         1 <0>         0.0000
   4420 WAT       -38.1820  -76.1660   -4.8330 O         1 <0>         0.0000
   4421 WAT       -38.1820  -76.1660   -4.5830 O         1 <0>         0.0000
   4422 WAT       -38.1820  -76.1660   -4.3330 O         1 <0>         0.0000
   4423 WAT       -38.1820  -76.1660   -4.0830 O         1 <0>         0.0000
   4424 WAT       -38.1820  -76.1660   -3.8330 O         1 <0>         0.0000
   4425 WAT       -38.1820  -76.1660   -3.5830 O         1 <0>         0.0000
   4426 WAT       -38.1820  -76.1660   -3.3330 O         1 <0>         0.0000
   4427 WAT       -38.1820  -76.1660   -3.0830 O         1 <0>         0.0000
   4428 WAT       -38.1820  -76.1660   -2.8330 O         1 <0>         0.0000
   4429 WAT       -38.1820  -76.1660   -2.5830 O         1 <0>         0.0000
   4430 WAT       -38.1820  -76.1660   -2.3330 O         1 <0>         0.0000
   4431 WAT       -38.1820  -76.1660   -2.0830 O         1 <0>         0.0000
   4432 WAT       -38.1820  -76.1660   -1.8330 O         1 <0>         0.0000
   4433 WAT       -38.1820  -76.1660   -1.5830 O         1 <0>         0.0000
   4434 WAT       -38.1820  -76.1660   -1.3330 O         1 <0>         0.0000
   4435 WAT       -38.1820  -76.1660   -1.0830 O         1 <0>         0.0000
   4436 WAT       -38.1820  -76.1660   -0.8330 O         1 <0>         0.0000
   4437 WAT       -38.1820  -76.1660   -0.5830 O         1 <0>         0.0000
   4438 WAT       -38.1820  -76.1660   -0.3330 O         1 <0>         0.0000
   4439 WAT       -38.1820  -76.1660   -0.0830 O         1 <0>         0.0000
   4440 WAT       -38.1820  -75.9160   -9.8330 O         1 <0>         0.0000
   4441 WAT       -38.1820  -75.9160   -9.5830 O         1 <0>         0.0000
   4442 WAT       -38.1820  -75.9160   -9.3330 O         1 <0>         0.0000
   4443 WAT       -38.1820  -75.9160   -9.0830 O         1 <0>         0.0000
   4444 WAT       -38.1820  -75.9160   -8.8330 O         1 <0>         0.0000
   4445 WAT       -38.1820  -75.9160   -8.5830 O         1 <0>         0.0000
   4446 WAT       -38.1820  -75.9160   -8.3330 O         1 <0>         0.0000
   4447 WAT       -38.1820  -75.9160   -8.0830 O         1 <0>         0.0000
   4448 WAT       -38.1820  -75.9160   -7.8330 O         1 <0>         0.0000
   4449 WAT       -38.1820  -75.9160   -7.5830 O         1 <0>         0.0000
   4450 WAT       -38.1820  -75.9160   -7.3330 O         1 <0>         0.0000
   4451 WAT       -38.1820  -75.9160   -7.0830 O         1 <0>         0.0000
   4452 WAT       -38.1820  -75.9160   -6.8330 O         1 <0>         0.0000
   4453 WAT       -38.1820  -75.9160   -6.5830 O         1 <0>         0.0000
   4454 WAT       -38.1820  -75.9160   -6.3330 O         1 <0>         0.0000
   4455 WAT       -38.1820  -75.9160   -6.0830 O         1 <0>         0.0000
   4456 WAT       -38.1820  -75.9160   -5.8330 O         1 <0>         0.0000
   4457 WAT       -38.1820  -75.9160   -5.5830 O         1 <0>         0.0000
   4458 WAT       -38.1820  -75.9160   -5.3330 O         1 <0>         0.0000
   4459 WAT       -38.1820  -75.9160   -5.0830 O         1 <0>         0.0000
   4460 WAT       -38.1820  -75.9160   -4.8330 O         1 <0>         0.0000
   4461 WAT       -38.1820  -75.9160   -4.5830 O         1 <0>         0.0000
   4462 WAT       -38.1820  -75.9160   -4.3330 O         1 <0>         0.0000
   4463 WAT       -38.1820  -75.9160   -4.0830 O         1 <0>         0.0000
   4464 WAT       -38.1820  -75.9160   -3.8330 O         1 <0>         0.0000
   4465 WAT       -38.1820  -75.9160   -3.5830 O         1 <0>         0.0000
   4466 WAT       -38.1820  -75.9160   -3.3330 O         1 <0>         0.0000
   4467 WAT       -38.1820  -75.9160   -3.0830 O         1 <0>         0.0000
   4468 WAT       -38.1820  -75.9160   -2.8330 O         1 <0>         0.0000
   4469 WAT       -38.1820  -75.9160   -2.5830 O         1 <0>         0.0000
   4470 WAT       -38.1820  -75.9160   -2.3330 O         1 <0>         0.0000
   4471 WAT       -38.1820  -75.9160   -2.0830 O         1 <0>         0.0000
   4472 WAT       -38.1820  -75.9160   -1.8330 O         1 <0>         0.0000
   4473 WAT       -38.1820  -75.9160   -1.5830 O         1 <0>         0.0000
   4474 WAT       -38.1820  -75.9160   -1.3330 O         1 <0>         0.0000
   4475 WAT       -38.1820  -75.9160   -1.0830 O         1 <0>         0.0000
   4476 WAT       -38.1820  -75.9160   -0.8330 O         1 <0>         0.0000
   4477 WAT       -38.1820  -75.9160   -0.5830 O         1 <0>         0.0000
   4478 WAT       -38.1820  -75.9160   -0.3330 O         1 <0>         0.0000
   4479 WAT       -38.1820  -75.9160   -0.0830 O         1 <0>         0.0000
   4480 WAT       -38.1820  -75.6660   -9.8330 O         1 <0>         0.0000
   4481 WAT       -38.1820  -75.6660   -9.5830 O         1 <0>         0.0000
   4482 WAT       -38.1820  -75.6660   -9.3330 O         1 <0>         0.0000
   4483 WAT       -38.1820  -75.6660   -9.0830 O         1 <0>         0.0000
   4484 WAT       -38.1820  -75.6660   -8.8330 O         1 <0>         0.0000
   4485 WAT       -38.1820  -75.6660   -8.5830 O         1 <0>         0.0000
   4486 WAT       -38.1820  -75.6660   -8.3330 O         1 <0>         0.0000
   4487 WAT       -38.1820  -75.6660   -8.0830 O         1 <0>         0.0000
   4488 WAT       -38.1820  -75.6660   -7.8330 O         1 <0>         0.0000
   4489 WAT       -38.1820  -75.6660   -7.5830 O         1 <0>         0.0000
   4490 WAT       -38.1820  -75.6660   -7.3330 O         1 <0>         0.0000
   4491 WAT       -38.1820  -75.6660   -7.0830 O         1 <0>         0.0000
   4492 WAT       -38.1820  -75.6660   -6.8330 O         1 <0>         0.0000
   4493 WAT       -38.1820  -75.6660   -6.5830 O         1 <0>         0.0000
   4494 WAT       -38.1820  -75.6660   -6.3330 O         1 <0>         0.0000
   4495 WAT       -38.1820  -75.6660   -6.0830 O         1 <0>         0.0000
   4496 WAT       -38.1820  -75.6660   -5.8330 O         1 <0>         0.0000
   4497 WAT       -38.1820  -75.6660   -5.5830 O         1 <0>         0.0000
   4498 WAT       -38.1820  -75.6660   -5.3330 O         1 <0>         0.0000
   4499 WAT       -38.1820  -75.6660   -5.0830 O         1 <0>         0.0000
   4500 WAT       -38.1820  -75.6660   -4.8330 O         1 <0>         0.0000
   4501 WAT       -38.1820  -75.6660   -4.5830 O         1 <0>         0.0000
   4502 WAT       -38.1820  -75.6660   -4.3330 O         1 <0>         0.0000
   4503 WAT       -38.1820  -75.6660   -4.0830 O         1 <0>         0.0000
   4504 WAT       -38.1820  -75.6660   -3.8330 O         1 <0>         0.0000
   4505 WAT       -38.1820  -75.6660   -3.5830 O         1 <0>         0.0000
   4506 WAT       -38.1820  -75.6660   -3.3330 O         1 <0>         0.0000
   4507 WAT       -38.1820  -75.6660   -3.0830 O         1 <0>         0.0000
   4508 WAT       -38.1820  -75.6660   -2.8330 O         1 <0>         0.0000
   4509 WAT       -38.1820  -75.6660   -2.5830 O         1 <0>         0.0000
   4510 WAT       -38.1820  -75.6660   -2.3330 O         1 <0>         0.0000
   4511 WAT       -38.1820  -75.6660   -2.0830 O         1 <0>         0.0000
   4512 WAT       -38.1820  -75.6660   -1.8330 O         1 <0>         0.0000
   4513 WAT       -38.1820  -75.6660   -1.5830 O         1 <0>         0.0000
   4514 WAT       -38.1820  -75.6660   -1.3330 O         1 <0>         0.0000
   4515 WAT       -38.1820  -75.6660   -1.0830 O         1 <0>         0.0000
   4516 WAT       -38.1820  -75.6660   -0.8330 O         1 <0>         0.0000
   4517 WAT       -38.1820  -75.6660   -0.5830 O         1 <0>         0.0000
   4518 WAT       -38.1820  -75.6660   -0.3330 O         1 <0>         0.0000
   4519 WAT       -38.1820  -75.6660   -0.0830 O         1 <0>         0.0000
   4520 WAT       -38.1820  -75.4160   -9.8330 O         1 <0>         0.0000
   4521 WAT       -38.1820  -75.4160   -9.5830 O         1 <0>         0.0000
   4522 WAT       -38.1820  -75.4160   -9.3330 O         1 <0>         0.0000
   4523 WAT       -38.1820  -75.4160   -9.0830 O         1 <0>         0.0000
   4524 WAT       -38.1820  -75.4160   -8.8330 O         1 <0>         0.0000
   4525 WAT       -38.1820  -75.4160   -8.5830 O         1 <0>         0.0000
   4526 WAT       -38.1820  -75.4160   -8.3330 O         1 <0>         0.0000
   4527 WAT       -38.1820  -75.4160   -8.0830 O         1 <0>         0.0000
   4528 WAT       -38.1820  -75.4160   -7.8330 O         1 <0>         0.0000
   4529 WAT       -38.1820  -75.4160   -7.5830 O         1 <0>         0.0000
   4530 WAT       -38.1820  -75.4160   -7.3330 O         1 <0>         0.0000
   4531 WAT       -38.1820  -75.4160   -7.0830 O         1 <0>         0.0000
   4532 WAT       -38.1820  -75.4160   -6.8330 O         1 <0>         0.0000
   4533 WAT       -38.1820  -75.4160   -6.5830 O         1 <0>         0.0000
   4534 WAT       -38.1820  -75.4160   -6.3330 O         1 <0>         0.0000
   4535 WAT       -38.1820  -75.4160   -6.0830 O         1 <0>         0.0000
   4536 WAT       -38.1820  -75.4160   -5.8330 O         1 <0>         0.0000
   4537 WAT       -38.1820  -75.4160   -5.5830 O         1 <0>         0.0000
   4538 WAT       -38.1820  -75.4160   -5.3330 O         1 <0>         0.0000
   4539 WAT       -38.1820  -75.4160   -5.0830 O         1 <0>         0.0000
   4540 WAT       -38.1820  -75.4160   -4.8330 O         1 <0>         0.0000
   4541 WAT       -38.1820  -75.4160   -4.5830 O         1 <0>         0.0000
   4542 WAT       -38.1820  -75.4160   -4.3330 O         1 <0>         0.0000
   4543 WAT       -38.1820  -75.4160   -4.0830 O         1 <0>         0.0000
   4544 WAT       -38.1820  -75.4160   -3.8330 O         1 <0>         0.0000
   4545 WAT       -38.1820  -75.4160   -3.5830 O         1 <0>         0.0000
   4546 WAT       -38.1820  -75.4160   -3.3330 O         1 <0>         0.0000
   4547 WAT       -38.1820  -75.4160   -3.0830 O         1 <0>         0.0000
   4548 WAT       -38.1820  -75.4160   -2.8330 O         1 <0>         0.0000
   4549 WAT       -38.1820  -75.4160   -2.5830 O         1 <0>         0.0000
   4550 WAT       -38.1820  -75.4160   -2.3330 O         1 <0>         0.0000
   4551 WAT       -38.1820  -75.4160   -2.0830 O         1 <0>         0.0000
   4552 WAT       -38.1820  -75.4160   -1.8330 O         1 <0>         0.0000
   4553 WAT       -38.1820  -75.4160   -1.5830 O         1 <0>         0.0000
   4554 WAT       -38.1820  -75.4160   -1.3330 O         1 <0>         0.0000
   4555 WAT       -38.1820  -75.4160   -1.0830 O         1 <0>         0.0000
   4556 WAT       -38.1820  -75.4160   -0.8330 O         1 <0>         0.0000
   4557 WAT       -38.1820  -75.4160   -0.5830 O         1 <0>         0.0000
   4558 WAT       -38.1820  -75.4160   -0.3330 O         1 <0>         0.0000
   4559 WAT       -38.1820  -75.4160   -0.0830 O         1 <0>         0.0000
   4560 WAT       -38.1820  -75.1660   -9.8330 O         1 <0>         0.0000
   4561 WAT       -38.1820  -75.1660   -9.5830 O         1 <0>         0.0000
   4562 WAT       -38.1820  -75.1660   -9.3330 O         1 <0>         0.0000
   4563 WAT       -38.1820  -75.1660   -9.0830 O         1 <0>         0.0000
   4564 WAT       -38.1820  -75.1660   -8.8330 O         1 <0>         0.0000
   4565 WAT       -38.1820  -75.1660   -8.5830 O         1 <0>         0.0000
   4566 WAT       -38.1820  -75.1660   -8.3330 O         1 <0>         0.0000
   4567 WAT       -38.1820  -75.1660   -8.0830 O         1 <0>         0.0000
   4568 WAT       -38.1820  -75.1660   -7.8330 O         1 <0>         0.0000
   4569 WAT       -38.1820  -75.1660   -7.5830 O         1 <0>         0.0000
   4570 WAT       -38.1820  -75.1660   -7.3330 O         1 <0>         0.0000
   4571 WAT       -38.1820  -75.1660   -7.0830 O         1 <0>         0.0000
   4572 WAT       -38.1820  -75.1660   -6.8330 O         1 <0>         0.0000
   4573 WAT       -38.1820  -75.1660   -6.5830 O         1 <0>         0.0000
   4574 WAT       -38.1820  -75.1660   -6.3330 O         1 <0>         0.0000
   4575 WAT       -38.1820  -75.1660   -6.0830 O         1 <0>         0.0000
   4576 WAT       -38.1820  -75.1660   -5.8330 O         1 <0>         0.0000
   4577 WAT       -38.1820  -75.1660   -5.5830 O         1 <0>         0.0000
   4578 WAT       -38.1820  -75.1660   -5.3330 O         1 <0>         0.0000
   4579 WAT       -38.1820  -75.1660   -5.0830 O         1 <0>         0.0000
   4580 WAT       -38.1820  -75.1660   -4.8330 O         1 <0>         0.0000
   4581 WAT       -38.1820  -75.1660   -4.5830 O         1 <0>         0.0000
   4582 WAT       -38.1820  -75.1660   -4.3330 O         1 <0>         0.0000
   4583 WAT       -38.1820  -75.1660   -4.0830 O         1 <0>         0.0000
   4584 WAT       -38.1820  -75.1660   -3.8330 O         1 <0>         0.0000
   4585 WAT       -38.1820  -75.1660   -3.5830 O         1 <0>         0.0000
   4586 WAT       -38.1820  -75.1660   -3.3330 O         1 <0>         0.0000
   4587 WAT       -38.1820  -75.1660   -3.0830 O         1 <0>         0.0000
   4588 WAT       -38.1820  -75.1660   -2.8330 O         1 <0>         0.0000
   4589 WAT       -38.1820  -75.1660   -2.5830 O         1 <0>         0.0000
   4590 WAT       -38.1820  -75.1660   -2.3330 O         1 <0>         0.0000
   4591 WAT       -38.1820  -75.1660   -2.0830 O         1 <0>         0.0000
   4592 WAT       -38.1820  -75.1660   -1.8330 O         1 <0>         0.0000
   4593 WAT       -38.1820  -75.1660   -1.5830 O         1 <0>         0.0000
   4594 WAT       -38.1820  -75.1660   -1.3330 O         1 <0>         0.0000
   4595 WAT       -38.1820  -75.1660   -1.0830 O         1 <0>         0.0000
   4596 WAT       -38.1820  -75.1660   -0.8330 O         1 <0>         0.0000
   4597 WAT       -38.1820  -75.1660   -0.5830 O         1 <0>         0.0000
   4598 WAT       -38.1820  -75.1660   -0.3330 O         1 <0>         0.0000
   4599 WAT       -38.1820  -75.1660   -0.0830 O         1 <0>         0.0000
   4600 WAT       -38.1820  -74.9160   -9.8330 O         1 <0>         0.0000
   4601 WAT       -38.1820  -74.9160   -9.5830 O         1 <0>         0.0000
   4602 WAT       -38.1820  -74.9160   -9.3330 O         1 <0>         0.0000
   4603 WAT       -38.1820  -74.9160   -9.0830 O         1 <0>         0.0000
   4604 WAT       -38.1820  -74.9160   -8.8330 O         1 <0>         0.0000
   4605 WAT       -38.1820  -74.9160   -8.5830 O         1 <0>         0.0000
   4606 WAT       -38.1820  -74.9160   -8.3330 O         1 <0>         0.0000
   4607 WAT       -38.1820  -74.9160   -8.0830 O         1 <0>         0.0000
   4608 WAT       -38.1820  -74.9160   -7.8330 O         1 <0>         0.0000
   4609 WAT       -38.1820  -74.9160   -7.5830 O         1 <0>         0.0000
   4610 WAT       -38.1820  -74.9160   -7.3330 O         1 <0>         0.0000
   4611 WAT       -38.1820  -74.9160   -7.0830 O         1 <0>         0.0000
   4612 WAT       -38.1820  -74.9160   -6.8330 O         1 <0>         0.0000
   4613 WAT       -38.1820  -74.9160   -6.5830 O         1 <0>         0.0000
   4614 WAT       -38.1820  -74.9160   -6.3330 O         1 <0>         0.0000
   4615 WAT       -38.1820  -74.9160   -6.0830 O         1 <0>         0.0000
   4616 WAT       -38.1820  -74.9160   -5.8330 O         1 <0>         0.0000
   4617 WAT       -38.1820  -74.9160   -5.5830 O         1 <0>         0.0000
   4618 WAT       -38.1820  -74.9160   -5.3330 O         1 <0>         0.0000
   4619 WAT       -38.1820  -74.9160   -5.0830 O         1 <0>         0.0000
   4620 WAT       -38.1820  -74.9160   -4.8330 O         1 <0>         0.0000
   4621 WAT       -38.1820  -74.9160   -4.5830 O         1 <0>         0.0000
   4622 WAT       -38.1820  -74.9160   -4.3330 O         1 <0>         0.0000
   4623 WAT       -38.1820  -74.9160   -4.0830 O         1 <0>         0.0000
   4624 WAT       -38.1820  -74.9160   -3.8330 O         1 <0>         0.0000
   4625 WAT       -38.1820  -74.9160   -3.5830 O         1 <0>         0.0000
   4626 WAT       -38.1820  -74.9160   -3.3330 O         1 <0>         0.0000
   4627 WAT       -38.1820  -74.9160   -3.0830 O         1 <0>         0.0000
   4628 WAT       -38.1820  -74.9160   -2.8330 O         1 <0>         0.0000
   4629 WAT       -38.1820  -74.9160   -2.5830 O         1 <0>         0.0000
   4630 WAT       -38.1820  -74.9160   -2.3330 O         1 <0>         0.0000
   4631 WAT       -38.1820  -74.9160   -2.0830 O         1 <0>         0.0000
   4632 WAT       -38.1820  -74.9160   -1.8330 O         1 <0>         0.0000
   4633 WAT       -38.1820  -74.9160   -1.5830 O         1 <0>         0.0000
   4634 WAT       -38.1820  -74.9160   -1.3330 O         1 <0>         0.0000
   4635 WAT       -38.1820  -74.9160   -1.0830 O         1 <0>         0.0000
   4636 WAT       -38.1820  -74.9160   -0.8330 O         1 <0>         0.0000
   4637 WAT       -38.1820  -74.9160   -0.5830 O         1 <0>         0.0000
   4638 WAT       -38.1820  -74.9160   -0.3330 O         1 <0>         0.0000
   4639 WAT       -38.1820  -74.9160   -0.0830 O         1 <0>         0.0000
   4640 WAT       -38.1820  -74.6660   -9.8330 O         1 <0>         0.0000
   4641 WAT       -38.1820  -74.6660   -9.5830 O         1 <0>         0.0000
   4642 WAT       -38.1820  -74.6660   -9.3330 O         1 <0>         0.0000
   4643 WAT       -38.1820  -74.6660   -9.0830 O         1 <0>         0.0000
   4644 WAT       -38.1820  -74.6660   -8.8330 O         1 <0>         0.0000
   4645 WAT       -38.1820  -74.6660   -8.5830 O         1 <0>         0.0000
   4646 WAT       -38.1820  -74.6660   -8.3330 O         1 <0>         0.0000
   4647 WAT       -38.1820  -74.6660   -8.0830 O         1 <0>         0.0000
   4648 WAT       -38.1820  -74.6660   -7.8330 O         1 <0>         0.0000
   4649 WAT       -38.1820  -74.6660   -7.5830 O         1 <0>         0.0000
   4650 WAT       -38.1820  -74.6660   -7.3330 O         1 <0>         0.0000
   4651 WAT       -38.1820  -74.6660   -7.0830 O         1 <0>         0.0000
   4652 WAT       -38.1820  -74.6660   -6.8330 O         1 <0>         0.0000
   4653 WAT       -38.1820  -74.6660   -6.5830 O         1 <0>         0.0000
   4654 WAT       -38.1820  -74.6660   -6.3330 O         1 <0>         0.0000
   4655 WAT       -38.1820  -74.6660   -6.0830 O         1 <0>         0.0000
   4656 WAT       -38.1820  -74.6660   -5.8330 O         1 <0>         0.0000
   4657 WAT       -38.1820  -74.6660   -5.5830 O         1 <0>         0.0000
   4658 WAT       -38.1820  -74.6660   -5.3330 O         1 <0>         0.0000
   4659 WAT       -38.1820  -74.6660   -5.0830 O         1 <0>         0.0000
   4660 WAT       -38.1820  -74.6660   -4.8330 O         1 <0>         0.0000
   4661 WAT       -38.1820  -74.6660   -4.5830 O         1 <0>         0.0000
   4662 WAT       -38.1820  -74.6660   -4.3330 O         1 <0>         0.0000
   4663 WAT       -38.1820  -74.6660   -4.0830 O         1 <0>         0.0000
   4664 WAT       -38.1820  -74.6660   -3.8330 O         1 <0>         0.0000
   4665 WAT       -38.1820  -74.6660   -3.5830 O         1 <0>         0.0000
   4666 WAT       -38.1820  -74.6660   -3.3330 O         1 <0>         0.0000
   4667 WAT       -38.1820  -74.6660   -3.0830 O         1 <0>         0.0000
   4668 WAT       -38.1820  -74.6660   -2.8330 O         1 <0>         0.0000
   4669 WAT       -38.1820  -74.6660   -2.5830 O         1 <0>         0.0000
   4670 WAT       -38.1820  -74.6660   -2.3330 O         1 <0>         0.0000
   4671 WAT       -38.1820  -74.6660   -2.0830 O         1 <0>         0.0000
   4672 WAT       -38.1820  -74.6660   -1.8330 O         1 <0>         0.0000
   4673 WAT       -38.1820  -74.6660   -1.5830 O         1 <0>         0.0000
   4674 WAT       -38.1820  -74.6660   -1.3330 O         1 <0>         0.0000
   4675 WAT       -38.1820  -74.6660   -1.0830 O         1 <0>         0.0000
   4676 WAT       -38.1820  -74.6660   -0.8330 O         1 <0>         0.0000
   4677 WAT       -38.1820  -74.6660   -0.5830 O         1 <0>         0.0000
   4678 WAT       -38.1820  -74.6660   -0.3330 O         1 <0>         0.0000
   4679 WAT       -38.1820  -74.6660   -0.0830 O         1 <0>         0.0000
   4680 WAT       -38.1820  -74.4160   -9.8330 O         1 <0>         0.0000
   4681 WAT       -38.1820  -74.4160   -9.5830 O         1 <0>         0.0000
   4682 WAT       -38.1820  -74.4160   -9.3330 O         1 <0>         0.0000
   4683 WAT       -38.1820  -74.4160   -9.0830 O         1 <0>         0.0000
   4684 WAT       -38.1820  -74.4160   -8.8330 O         1 <0>         0.0000
   4685 WAT       -38.1820  -74.4160   -8.5830 O         1 <0>         0.0000
   4686 WAT       -38.1820  -74.4160   -8.3330 O         1 <0>         0.0000
   4687 WAT       -38.1820  -74.4160   -8.0830 O         1 <0>         0.0000
   4688 WAT       -38.1820  -74.4160   -7.8330 O         1 <0>         0.0000
   4689 WAT       -38.1820  -74.4160   -7.5830 O         1 <0>         0.0000
   4690 WAT       -38.1820  -74.4160   -7.3330 O         1 <0>         0.0000
   4691 WAT       -38.1820  -74.4160   -7.0830 O         1 <0>         0.0000
   4692 WAT       -38.1820  -74.4160   -6.8330 O         1 <0>         0.0000
   4693 WAT       -38.1820  -74.4160   -6.5830 O         1 <0>         0.0000
   4694 WAT       -38.1820  -74.4160   -6.3330 O         1 <0>         0.0000
   4695 WAT       -38.1820  -74.4160   -6.0830 O         1 <0>         0.0000
   4696 WAT       -38.1820  -74.4160   -5.8330 O         1 <0>         0.0000
   4697 WAT       -38.1820  -74.4160   -5.5830 O         1 <0>         0.0000
   4698 WAT       -38.1820  -74.4160   -5.3330 O         1 <0>         0.0000
   4699 WAT       -38.1820  -74.4160   -5.0830 O         1 <0>         0.0000
   4700 WAT       -38.1820  -74.4160   -4.8330 O         1 <0>         0.0000
   4701 WAT       -38.1820  -74.4160   -4.5830 O         1 <0>         0.0000
   4702 WAT       -38.1820  -74.4160   -4.3330 O         1 <0>         0.0000
   4703 WAT       -38.1820  -74.4160   -4.0830 O         1 <0>         0.0000
   4704 WAT       -38.1820  -74.4160   -3.8330 O         1 <0>         0.0000
   4705 WAT       -38.1820  -74.4160   -3.5830 O         1 <0>         0.0000
   4706 WAT       -38.1820  -74.4160   -3.3330 O         1 <0>         0.0000
   4707 WAT       -38.1820  -74.4160   -3.0830 O         1 <0>         0.0000
   4708 WAT       -38.1820  -74.4160   -2.8330 O         1 <0>         0.0000
   4709 WAT       -38.1820  -74.4160   -2.5830 O         1 <0>         0.0000
   4710 WAT       -38.1820  -74.4160   -2.3330 O         1 <0>         0.0000
   4711 WAT       -38.1820  -74.4160   -2.0830 O         1 <0>         0.0000
   4712 WAT       -38.1820  -74.4160   -1.8330 O         1 <0>         0.0000
   4713 WAT       -38.1820  -74.4160   -1.5830 O         1 <0>         0.0000
   4714 WAT       -38.1820  -74.4160   -1.3330 O         1 <0>         0.0000
   4715 WAT       -38.1820  -74.4160   -1.0830 O         1 <0>         0.0000
   4716 WAT       -38.1820  -74.4160   -0.8330 O         1 <0>         0.0000
   4717 WAT       -38.1820  -74.4160   -0.5830 O         1 <0>         0.0000
   4718 WAT       -38.1820  -74.4160   -0.3330 O         1 <0>         0.0000
   4719 WAT       -38.1820  -74.4160   -0.0830 O         1 <0>         0.0000
   4720 WAT       -38.1820  -74.1660   -9.8330 O         1 <0>         0.0000
   4721 WAT       -38.1820  -74.1660   -9.5830 O         1 <0>         0.0000
   4722 WAT       -38.1820  -74.1660   -9.3330 O         1 <0>         0.0000
   4723 WAT       -38.1820  -74.1660   -9.0830 O         1 <0>         0.0000
   4724 WAT       -38.1820  -74.1660   -8.8330 O         1 <0>         0.0000
   4725 WAT       -38.1820  -74.1660   -8.5830 O         1 <0>         0.0000
   4726 WAT       -38.1820  -74.1660   -8.3330 O         1 <0>         0.0000
   4727 WAT       -38.1820  -74.1660   -8.0830 O         1 <0>         0.0000
   4728 WAT       -38.1820  -74.1660   -7.8330 O         1 <0>         0.0000
   4729 WAT       -38.1820  -74.1660   -7.5830 O         1 <0>         0.0000
   4730 WAT       -38.1820  -74.1660   -7.3330 O         1 <0>         0.0000
   4731 WAT       -38.1820  -74.1660   -7.0830 O         1 <0>         0.0000
   4732 WAT       -38.1820  -74.1660   -6.8330 O         1 <0>         0.0000
   4733 WAT       -38.1820  -74.1660   -6.5830 O         1 <0>         0.0000
   4734 WAT       -38.1820  -74.1660   -6.3330 O         1 <0>         0.0000
   4735 WAT       -38.1820  -74.1660   -6.0830 O         1 <0>         0.0000
   4736 WAT       -38.1820  -74.1660   -5.8330 O         1 <0>         0.0000
   4737 WAT       -38.1820  -74.1660   -5.5830 O         1 <0>         0.0000
   4738 WAT       -38.1820  -74.1660   -5.3330 O         1 <0>         0.0000
   4739 WAT       -38.1820  -74.1660   -5.0830 O         1 <0>         0.0000
   4740 WAT       -38.1820  -74.1660   -4.8330 O         1 <0>         0.0000
   4741 WAT       -38.1820  -74.1660   -4.5830 O         1 <0>         0.0000
   4742 WAT       -38.1820  -74.1660   -4.3330 O         1 <0>         0.0000
   4743 WAT       -38.1820  -74.1660   -4.0830 O         1 <0>         0.0000
   4744 WAT       -38.1820  -74.1660   -3.8330 O         1 <0>         0.0000
   4745 WAT       -38.1820  -74.1660   -3.5830 O         1 <0>         0.0000
   4746 WAT       -38.1820  -74.1660   -3.3330 O         1 <0>         0.0000
   4747 WAT       -38.1820  -74.1660   -3.0830 O         1 <0>         0.0000
   4748 WAT       -38.1820  -74.1660   -2.8330 O         1 <0>         0.0000
   4749 WAT       -38.1820  -74.1660   -2.5830 O         1 <0>         0.0000
   4750 WAT       -38.1820  -74.1660   -2.3330 O         1 <0>         0.0000
   4751 WAT       -38.1820  -74.1660   -2.0830 O         1 <0>         0.0000
   4752 WAT       -38.1820  -74.1660   -1.8330 O         1 <0>         0.0000
   4753 WAT       -38.1820  -74.1660   -1.5830 O         1 <0>         0.0000
   4754 WAT       -38.1820  -74.1660   -1.3330 O         1 <0>         0.0000
   4755 WAT       -38.1820  -74.1660   -1.0830 O         1 <0>         0.0000
   4756 WAT       -38.1820  -74.1660   -0.8330 O         1 <0>         0.0000
   4757 WAT       -38.1820  -74.1660   -0.5830 O         1 <0>         0.0000
   4758 WAT       -38.1820  -74.1660   -0.3330 O         1 <0>         0.0000
   4759 WAT       -38.1820  -74.1660   -0.0830 O         1 <0>         0.0000
   4760 WAT       -38.1820  -73.9160   -9.8330 O         1 <0>         0.0000
   4761 WAT       -38.1820  -73.9160   -9.5830 O         1 <0>         0.0000
   4762 WAT       -38.1820  -73.9160   -9.3330 O         1 <0>         0.0000
   4763 WAT       -38.1820  -73.9160   -9.0830 O         1 <0>         0.0000
   4764 WAT       -38.1820  -73.9160   -8.8330 O         1 <0>         0.0000
   4765 WAT       -38.1820  -73.9160   -8.5830 O         1 <0>         0.0000
   4766 WAT       -38.1820  -73.9160   -8.3330 O         1 <0>         0.0000
   4767 WAT       -38.1820  -73.9160   -8.0830 O         1 <0>         0.0000
   4768 WAT       -38.1820  -73.9160   -7.8330 O         1 <0>         0.0000
   4769 WAT       -38.1820  -73.9160   -7.5830 O         1 <0>         0.0000
   4770 WAT       -38.1820  -73.9160   -7.3330 O         1 <0>         0.0000
   4771 WAT       -38.1820  -73.9160   -7.0830 O         1 <0>         0.0000
   4772 WAT       -38.1820  -73.9160   -6.8330 O         1 <0>         0.0000
   4773 WAT       -38.1820  -73.9160   -6.5830 O         1 <0>         0.0000
   4774 WAT       -38.1820  -73.9160   -6.3330 O         1 <0>         0.0000
   4775 WAT       -38.1820  -73.9160   -6.0830 O         1 <0>         0.0000
   4776 WAT       -38.1820  -73.9160   -5.8330 O         1 <0>         0.0000
   4777 WAT       -38.1820  -73.9160   -5.5830 O         1 <0>         0.0000
   4778 WAT       -38.1820  -73.9160   -5.3330 O         1 <0>         0.0000
   4779 WAT       -38.1820  -73.9160   -5.0830 O         1 <0>         0.0000
   4780 WAT       -38.1820  -73.9160   -4.8330 O         1 <0>         0.0000
   4781 WAT       -38.1820  -73.9160   -4.5830 O         1 <0>         0.0000
   4782 WAT       -38.1820  -73.9160   -4.3330 O         1 <0>         0.0000
   4783 WAT       -38.1820  -73.9160   -4.0830 O         1 <0>         0.0000
   4784 WAT       -38.1820  -73.9160   -3.8330 O         1 <0>         0.0000
   4785 WAT       -38.1820  -73.9160   -3.5830 O         1 <0>         0.0000
   4786 WAT       -38.1820  -73.9160   -3.3330 O         1 <0>         0.0000
   4787 WAT       -38.1820  -73.9160   -3.0830 O         1 <0>         0.0000
   4788 WAT       -38.1820  -73.9160   -2.8330 O         1 <0>         0.0000
   4789 WAT       -38.1820  -73.9160   -2.5830 O         1 <0>         0.0000
   4790 WAT       -38.1820  -73.9160   -2.3330 O         1 <0>         0.0000
   4791 WAT       -38.1820  -73.9160   -2.0830 O         1 <0>         0.0000
   4792 WAT       -38.1820  -73.9160   -1.8330 O         1 <0>         0.0000
   4793 WAT       -38.1820  -73.9160   -1.5830 O         1 <0>         0.0000
   4794 WAT       -38.1820  -73.9160   -1.3330 O         1 <0>         0.0000
   4795 WAT       -38.1820  -73.9160   -1.0830 O         1 <0>         0.0000
   4796 WAT       -38.1820  -73.9160   -0.8330 O         1 <0>         0.0000
   4797 WAT       -38.1820  -73.9160   -0.5830 O         1 <0>         0.0000
   4798 WAT       -38.1820  -73.9160   -0.3330 O         1 <0>         0.0000
   4799 WAT       -38.1820  -73.9160   -0.0830 O         1 <0>         0.0000
   4800 WAT       -38.1820  -73.6660   -9.8330 O         1 <0>         0.0000
   4801 WAT       -38.1820  -73.6660   -9.5830 O         1 <0>         0.0000
   4802 WAT       -38.1820  -73.6660   -9.3330 O         1 <0>         0.0000
   4803 WAT       -38.1820  -73.6660   -9.0830 O         1 <0>         0.0000
   4804 WAT       -38.1820  -73.6660   -8.8330 O         1 <0>         0.0000
   4805 WAT       -38.1820  -73.6660   -8.5830 O         1 <0>         0.0000
   4806 WAT       -38.1820  -73.6660   -8.3330 O         1 <0>         0.0000
   4807 WAT       -38.1820  -73.6660   -8.0830 O         1 <0>         0.0000
   4808 WAT       -38.1820  -73.6660   -7.8330 O         1 <0>         0.0000
   4809 WAT       -38.1820  -73.6660   -7.5830 O         1 <0>         0.0000
   4810 WAT       -38.1820  -73.6660   -7.3330 O         1 <0>         0.0000
   4811 WAT       -38.1820  -73.6660   -7.0830 O         1 <0>         0.0000
   4812 WAT       -38.1820  -73.6660   -6.8330 O         1 <0>         0.0000
   4813 WAT       -38.1820  -73.6660   -6.5830 O         1 <0>         0.0000
   4814 WAT       -38.1820  -73.6660   -6.3330 O         1 <0>         0.0000
   4815 WAT       -38.1820  -73.6660   -6.0830 O         1 <0>         0.0000
   4816 WAT       -38.1820  -73.6660   -5.8330 O         1 <0>         0.0000
   4817 WAT       -38.1820  -73.6660   -5.5830 O         1 <0>         0.0000
   4818 WAT       -38.1820  -73.6660   -5.3330 O         1 <0>         0.0000
   4819 WAT       -38.1820  -73.6660   -5.0830 O         1 <0>         0.0000
   4820 WAT       -38.1820  -73.6660   -4.8330 O         1 <0>         0.0000
   4821 WAT       -38.1820  -73.6660   -4.5830 O         1 <0>         0.0000
   4822 WAT       -38.1820  -73.6660   -4.3330 O         1 <0>         0.0000
   4823 WAT       -38.1820  -73.6660   -4.0830 O         1 <0>         0.0000
   4824 WAT       -38.1820  -73.6660   -3.8330 O         1 <0>         0.0000
   4825 WAT       -38.1820  -73.6660   -3.5830 O         1 <0>         0.0000
   4826 WAT       -38.1820  -73.6660   -3.3330 O         1 <0>         0.0000
   4827 WAT       -38.1820  -73.6660   -3.0830 O         1 <0>         0.0000
   4828 WAT       -38.1820  -73.6660   -2.8330 O         1 <0>         0.0000
   4829 WAT       -38.1820  -73.6660   -2.5830 O         1 <0>         0.0000
   4830 WAT       -38.1820  -73.6660   -2.3330 O         1 <0>         0.0000
   4831 WAT       -38.1820  -73.6660   -2.0830 O         1 <0>         0.0000
   4832 WAT       -38.1820  -73.6660   -1.8330 O         1 <0>         0.0000
   4833 WAT       -38.1820  -73.6660   -1.5830 O         1 <0>         0.0000
   4834 WAT       -38.1820  -73.6660   -1.3330 O         1 <0>         0.0000
   4835 WAT       -38.1820  -73.6660   -1.0830 O         1 <0>         0.0000
   4836 WAT       -38.1820  -73.6660   -0.8330 O         1 <0>         0.0000
   4837 WAT       -38.1820  -73.6660   -0.5830 O         1 <0>         0.0000
   4838 WAT       -38.1820  -73.6660   -0.3330 O         1 <0>         0.0000
   4839 WAT       -38.1820  -73.6660   -0.0830 O         1 <0>         0.0000
   4840 WAT       -38.1820  -73.4160   -9.8330 O         1 <0>         0.0000
   4841 WAT       -38.1820  -73.4160   -9.5830 O         1 <0>         0.0000
   4842 WAT       -38.1820  -73.4160   -9.3330 O         1 <0>         0.0000
   4843 WAT       -38.1820  -73.4160   -9.0830 O         1 <0>         0.0000
   4844 WAT       -38.1820  -73.4160   -8.8330 O         1 <0>         0.0000
   4845 WAT       -38.1820  -73.4160   -8.5830 O         1 <0>         0.0000
   4846 WAT       -38.1820  -73.4160   -8.3330 O         1 <0>         0.0000
   4847 WAT       -38.1820  -73.4160   -8.0830 O         1 <0>         0.0000
   4848 WAT       -38.1820  -73.4160   -7.8330 O         1 <0>         0.0000
   4849 WAT       -38.1820  -73.4160   -7.5830 O         1 <0>         0.0000
   4850 WAT       -38.1820  -73.4160   -7.3330 O         1 <0>         0.0000
   4851 WAT       -38.1820  -73.4160   -7.0830 O         1 <0>         0.0000
   4852 WAT       -38.1820  -73.4160   -6.8330 O         1 <0>         0.0000
   4853 WAT       -38.1820  -73.4160   -6.5830 O         1 <0>         0.0000
   4854 WAT       -38.1820  -73.4160   -6.3330 O         1 <0>         0.0000
   4855 WAT       -38.1820  -73.4160   -6.0830 O         1 <0>         0.0000
   4856 WAT       -38.1820  -73.4160   -5.8330 O         1 <0>         0.0000
   4857 WAT       -38.1820  -73.4160   -5.5830 O         1 <0>         0.0000
   4858 WAT       -38.1820  -73.4160   -5.3330 O         1 <0>         0.0000
   4859 WAT       -38.1820  -73.4160   -5.0830 O         1 <0>         0.0000
   4860 WAT       -38.1820  -73.4160   -4.8330 O         1 <0>         0.0000
   4861 WAT       -38.1820  -73.4160   -4.5830 O         1 <0>         0.0000
   4862 WAT       -38.1820  -73.4160   -4.3330 O         1 <0>         0.0000
   4863 WAT       -38.1820  -73.4160   -4.0830 O         1 <0>         0.0000
   4864 WAT       -38.1820  -73.4160   -3.8330 O         1 <0>         0.0000
   4865 WAT       -38.1820  -73.4160   -3.5830 O         1 <0>         0.0000
   4866 WAT       -38.1820  -73.4160   -3.3330 O         1 <0>         0.0000
   4867 WAT       -38.1820  -73.4160   -3.0830 O         1 <0>         0.0000
   4868 WAT       -38.1820  -73.4160   -2.8330 O         1 <0>         0.0000
   4869 WAT       -38.1820  -73.4160   -2.5830 O         1 <0>         0.0000
   4870 WAT       -38.1820  -73.4160   -2.3330 O         1 <0>         0.0000
   4871 WAT       -38.1820  -73.4160   -2.0830 O         1 <0>         0.0000
   4872 WAT       -38.1820  -73.4160   -1.8330 O         1 <0>         0.0000
   4873 WAT       -38.1820  -73.4160   -1.5830 O         1 <0>         0.0000
   4874 WAT       -38.1820  -73.4160   -1.3330 O         1 <0>         0.0000
   4875 WAT       -38.1820  -73.4160   -1.0830 O         1 <0>         0.0000
   4876 WAT       -38.1820  -73.4160   -0.8330 O         1 <0>         0.0000
   4877 WAT       -38.1820  -73.4160   -0.5830 O         1 <0>         0.0000
   4878 WAT       -38.1820  -73.4160   -0.3330 O         1 <0>         0.0000
   4879 WAT       -38.1820  -73.4160   -0.0830 O         1 <0>         0.0000
   4880 WAT       -38.1820  -73.1660   -9.8330 O         1 <0>         0.0000
   4881 WAT       -38.1820  -73.1660   -9.5830 O         1 <0>         0.0000
   4882 WAT       -38.1820  -73.1660   -9.3330 O         1 <0>         0.0000
   4883 WAT       -38.1820  -73.1660   -9.0830 O         1 <0>         0.0000
   4884 WAT       -38.1820  -73.1660   -8.8330 O         1 <0>         0.0000
   4885 WAT       -38.1820  -73.1660   -8.5830 O         1 <0>         0.0000
   4886 WAT       -38.1820  -73.1660   -8.3330 O         1 <0>         0.0000
   4887 WAT       -38.1820  -73.1660   -8.0830 O         1 <0>         0.0000
   4888 WAT       -38.1820  -73.1660   -7.8330 O         1 <0>         0.0000
   4889 WAT       -38.1820  -73.1660   -7.5830 O         1 <0>         0.0000
   4890 WAT       -38.1820  -73.1660   -7.3330 O         1 <0>         0.0000
   4891 WAT       -38.1820  -73.1660   -7.0830 O         1 <0>         0.0000
   4892 WAT       -38.1820  -73.1660   -6.8330 O         1 <0>         0.0000
   4893 WAT       -38.1820  -73.1660   -6.5830 O         1 <0>         0.0000
   4894 WAT       -38.1820  -73.1660   -6.3330 O         1 <0>         0.0000
   4895 WAT       -38.1820  -73.1660   -6.0830 O         1 <0>         0.0000
   4896 WAT       -38.1820  -73.1660   -5.8330 O         1 <0>         0.0000
   4897 WAT       -38.1820  -73.1660   -5.5830 O         1 <0>         0.0000
   4898 WAT       -38.1820  -73.1660   -5.3330 O         1 <0>         0.0000
   4899 WAT       -38.1820  -73.1660   -5.0830 O         1 <0>         0.0000
   4900 WAT       -38.1820  -73.1660   -4.8330 O         1 <0>         0.0000
   4901 WAT       -38.1820  -73.1660   -4.5830 O         1 <0>         0.0000
   4902 WAT       -38.1820  -73.1660   -4.3330 O         1 <0>         0.0000
   4903 WAT       -38.1820  -73.1660   -4.0830 O         1 <0>         0.0000
   4904 WAT       -38.1820  -73.1660   -3.8330 O         1 <0>         0.0000
   4905 WAT       -38.1820  -73.1660   -3.5830 O         1 <0>         0.0000
   4906 WAT       -38.1820  -73.1660   -3.3330 O         1 <0>         0.0000
   4907 WAT       -38.1820  -73.1660   -3.0830 O         1 <0>         0.0000
   4908 WAT       -38.1820  -73.1660   -2.8330 O         1 <0>         0.0000
   4909 WAT       -38.1820  -73.1660   -2.5830 O         1 <0>         0.0000
   4910 WAT       -38.1820  -73.1660   -2.3330 O         1 <0>         0.0000
   4911 WAT       -38.1820  -73.1660   -2.0830 O         1 <0>         0.0000
   4912 WAT       -38.1820  -73.1660   -1.8330 O         1 <0>         0.0000
   4913 WAT       -38.1820  -73.1660   -1.5830 O         1 <0>         0.0000
   4914 WAT       -38.1820  -73.1660   -1.3330 O         1 <0>         0.0000
   4915 WAT       -38.1820  -73.1660   -1.0830 O         1 <0>         0.0000
   4916 WAT       -38.1820  -73.1660   -0.8330 O         1 <0>         0.0000
   4917 WAT       -38.1820  -73.1660   -0.5830 O         1 <0>         0.0000
   4918 WAT       -38.1820  -73.1660   -0.3330 O         1 <0>         0.0000
   4919 WAT       -38.1820  -73.1660   -0.0830 O         1 <0>         0.0000
   4920 WAT       -38.1820  -72.9160   -9.8330 O         1 <0>         0.0000
   4921 WAT       -38.1820  -72.9160   -9.5830 O         1 <0>         0.0000
   4922 WAT       -38.1820  -72.9160   -9.3330 O         1 <0>         0.0000
   4923 WAT       -38.1820  -72.9160   -9.0830 O         1 <0>         0.0000
   4924 WAT       -38.1820  -72.9160   -8.8330 O         1 <0>         0.0000
   4925 WAT       -38.1820  -72.9160   -8.5830 O         1 <0>         0.0000
   4926 WAT       -38.1820  -72.9160   -8.3330 O         1 <0>         0.0000
   4927 WAT       -38.1820  -72.9160   -8.0830 O         1 <0>         0.0000
   4928 WAT       -38.1820  -72.9160   -7.8330 O         1 <0>         0.0000
   4929 WAT       -38.1820  -72.9160   -7.5830 O         1 <0>         0.0000
   4930 WAT       -38.1820  -72.9160   -7.3330 O         1 <0>         0.0000
   4931 WAT       -38.1820  -72.9160   -7.0830 O         1 <0>         0.0000
   4932 WAT       -38.1820  -72.9160   -6.8330 O         1 <0>         0.0000
   4933 WAT       -38.1820  -72.9160   -6.5830 O         1 <0>         0.0000
   4934 WAT       -38.1820  -72.9160   -6.3330 O         1 <0>         0.0000
   4935 WAT       -38.1820  -72.9160   -6.0830 O         1 <0>         0.0000
   4936 WAT       -38.1820  -72.9160   -5.8330 O         1 <0>         0.0000
   4937 WAT       -38.1820  -72.9160   -5.5830 O         1 <0>         0.0000
   4938 WAT       -38.1820  -72.9160   -5.3330 O         1 <0>         0.0000
   4939 WAT       -38.1820  -72.9160   -5.0830 O         1 <0>         0.0000
   4940 WAT       -38.1820  -72.9160   -4.8330 O         1 <0>         0.0000
   4941 WAT       -38.1820  -72.9160   -4.5830 O         1 <0>         0.0000
   4942 WAT       -38.1820  -72.9160   -4.3330 O         1 <0>         0.0000
   4943 WAT       -38.1820  -72.9160   -4.0830 O         1 <0>         0.0000
   4944 WAT       -38.1820  -72.9160   -3.8330 O         1 <0>         0.0000
   4945 WAT       -38.1820  -72.9160   -3.5830 O         1 <0>         0.0000
   4946 WAT       -38.1820  -72.9160   -3.3330 O         1 <0>         0.0000
   4947 WAT       -38.1820  -72.9160   -3.0830 O         1 <0>         0.0000
   4948 WAT       -38.1820  -72.9160   -2.8330 O         1 <0>         0.0000
   4949 WAT       -38.1820  -72.9160   -2.5830 O         1 <0>         0.0000
   4950 WAT       -38.1820  -72.9160   -2.3330 O         1 <0>         0.0000
   4951 WAT       -38.1820  -72.9160   -2.0830 O         1 <0>         0.0000
   4952 WAT       -38.1820  -72.9160   -1.8330 O         1 <0>         0.0000
   4953 WAT       -38.1820  -72.9160   -1.5830 O         1 <0>         0.0000
   4954 WAT       -38.1820  -72.9160   -1.3330 O         1 <0>         0.0000
   4955 WAT       -38.1820  -72.9160   -1.0830 O         1 <0>         0.0000
   4956 WAT       -38.1820  -72.9160   -0.8330 O         1 <0>         0.0000
   4957 WAT       -38.1820  -72.9160   -0.5830 O         1 <0>         0.0000
   4958 WAT       -38.1820  -72.9160   -0.3330 O         1 <0>         0.0000
   4959 WAT       -38.1820  -72.9160   -0.0830 O         1 <0>         0.0000
   4960 WAT       -38.1820  -72.6660   -9.8330 O         1 <0>         0.0000
   4961 WAT       -38.1820  -72.6660   -9.5830 O         1 <0>         0.0000
   4962 WAT       -38.1820  -72.6660   -9.3330 O         1 <0>         0.0000
   4963 WAT       -38.1820  -72.6660   -9.0830 O         1 <0>         0.0000
   4964 WAT       -38.1820  -72.6660   -8.8330 O         1 <0>         0.0000
   4965 WAT       -38.1820  -72.6660   -8.5830 O         1 <0>         0.0000
   4966 WAT       -38.1820  -72.6660   -8.3330 O         1 <0>         0.0000
   4967 WAT       -38.1820  -72.6660   -8.0830 O         1 <0>         0.0000
   4968 WAT       -38.1820  -72.6660   -7.8330 O         1 <0>         0.0000
   4969 WAT       -38.1820  -72.6660   -7.5830 O         1 <0>         0.0000
   4970 WAT       -38.1820  -72.6660   -7.3330 O         1 <0>         0.0000
   4971 WAT       -38.1820  -72.6660   -7.0830 O         1 <0>         0.0000
   4972 WAT       -38.1820  -72.6660   -6.8330 O         1 <0>         0.0000
   4973 WAT       -38.1820  -72.6660   -6.5830 O         1 <0>         0.0000
   4974 WAT       -38.1820  -72.6660   -6.3330 O         1 <0>         0.0000
   4975 WAT       -38.1820  -72.6660   -6.0830 O         1 <0>         0.0000
   4976 WAT       -38.1820  -72.6660   -5.8330 O         1 <0>         0.0000
   4977 WAT       -38.1820  -72.6660   -5.5830 O         1 <0>         0.0000
   4978 WAT       -38.1820  -72.6660   -5.3330 O         1 <0>         0.0000
   4979 WAT       -38.1820  -72.6660   -5.0830 O         1 <0>         0.0000
   4980 WAT       -38.1820  -72.6660   -4.8330 O         1 <0>         0.0000
   4981 WAT       -38.1820  -72.6660   -4.5830 O         1 <0>         0.0000
   4982 WAT       -38.1820  -72.6660   -4.3330 O         1 <0>         0.0000
   4983 WAT       -38.1820  -72.6660   -4.0830 O         1 <0>         0.0000
   4984 WAT       -38.1820  -72.6660   -3.8330 O         1 <0>         0.0000
   4985 WAT       -38.1820  -72.6660   -3.5830 O         1 <0>         0.0000
   4986 WAT       -38.1820  -72.6660   -3.3330 O         1 <0>         0.0000
   4987 WAT       -38.1820  -72.6660   -3.0830 O         1 <0>         0.0000
   4988 WAT       -38.1820  -72.6660   -2.8330 O         1 <0>         0.0000
   4989 WAT       -38.1820  -72.6660   -2.5830 O         1 <0>         0.0000
   4990 WAT       -38.1820  -72.6660   -2.3330 O         1 <0>         0.0000
   4991 WAT       -38.1820  -72.6660   -2.0830 O         1 <0>         0.0000
   4992 WAT       -38.1820  -72.6660   -1.8330 O         1 <0>         0.0000
   4993 WAT       -38.1820  -72.6660   -1.5830 O         1 <0>         0.0000
   4994 WAT       -38.1820  -72.6660   -1.3330 O         1 <0>         0.0000
   4995 WAT       -38.1820  -72.6660   -1.0830 O         1 <0>         0.0000
   4996 WAT       -38.1820  -72.6660   -0.8330 O         1 <0>         0.0000
   4997 WAT       -38.1820  -72.6660   -0.5830 O         1 <0>         0.0000
   4998 WAT       -38.1820  -72.6660   -0.3330 O         1 <0>         0.0000
   4999 WAT       -38.1820  -72.6660   -0.0830 O         1 <0>         0.0000
   5000 WAT       -38.1820  -72.4160   -9.8330 O         1 <0>         0.0000
   5001 WAT       -38.1820  -72.4160   -9.5830 O         1 <0>         0.0000
   5002 WAT       -38.1820  -72.4160   -9.3330 O         1 <0>         0.0000
   5003 WAT       -38.1820  -72.4160   -9.0830 O         1 <0>         0.0000
   5004 WAT       -38.1820  -72.4160   -8.8330 O         1 <0>         0.0000
   5005 WAT       -38.1820  -72.4160   -8.5830 O         1 <0>         0.0000
   5006 WAT       -38.1820  -72.4160   -8.3330 O         1 <0>         0.0000
   5007 WAT       -38.1820  -72.4160   -8.0830 O         1 <0>         0.0000
   5008 WAT       -38.1820  -72.4160   -7.8330 O         1 <0>         0.0000
   5009 WAT       -38.1820  -72.4160   -7.5830 O         1 <0>         0.0000
   5010 WAT       -38.1820  -72.4160   -7.3330 O         1 <0>         0.0000
   5011 WAT       -38.1820  -72.4160   -7.0830 O         1 <0>         0.0000
   5012 WAT       -38.1820  -72.4160   -6.8330 O         1 <0>         0.0000
   5013 WAT       -38.1820  -72.4160   -6.5830 O         1 <0>         0.0000
   5014 WAT       -38.1820  -72.4160   -6.3330 O         1 <0>         0.0000
   5015 WAT       -38.1820  -72.4160   -6.0830 O         1 <0>         0.0000
   5016 WAT       -38.1820  -72.4160   -5.8330 O         1 <0>         0.0000
   5017 WAT       -38.1820  -72.4160   -5.5830 O         1 <0>         0.0000
   5018 WAT       -38.1820  -72.4160   -5.3330 O         1 <0>         0.0000
   5019 WAT       -38.1820  -72.4160   -5.0830 O         1 <0>         0.0000
   5020 WAT       -38.1820  -72.4160   -4.8330 O         1 <0>         0.0000
   5021 WAT       -38.1820  -72.4160   -4.5830 O         1 <0>         0.0000
   5022 WAT       -38.1820  -72.4160   -4.3330 O         1 <0>         0.0000
   5023 WAT       -38.1820  -72.4160   -4.0830 O         1 <0>         0.0000
   5024 WAT       -38.1820  -72.4160   -3.8330 O         1 <0>         0.0000
   5025 WAT       -38.1820  -72.4160   -3.5830 O         1 <0>         0.0000
   5026 WAT       -38.1820  -72.4160   -3.3330 O         1 <0>         0.0000
   5027 WAT       -38.1820  -72.4160   -3.0830 O         1 <0>         0.0000
   5028 WAT       -38.1820  -72.4160   -2.8330 O         1 <0>         0.0000
   5029 WAT       -38.1820  -72.4160   -2.5830 O         1 <0>         0.0000
   5030 WAT       -38.1820  -72.4160   -2.3330 O         1 <0>         0.0000
   5031 WAT       -38.1820  -72.4160   -2.0830 O         1 <0>         0.0000
   5032 WAT       -38.1820  -72.4160   -1.8330 O         1 <0>         0.0000
   5033 WAT       -38.1820  -72.4160   -1.5830 O         1 <0>         0.0000
   5034 WAT       -38.1820  -72.4160   -1.3330 O         1 <0>         0.0000
   5035 WAT       -38.1820  -72.4160   -1.0830 O         1 <0>         0.0000
   5036 WAT       -38.1820  -72.4160   -0.8330 O         1 <0>         0.0000
   5037 WAT       -38.1820  -72.4160   -0.5830 O         1 <0>         0.0000
   5038 WAT       -38.1820  -72.4160   -0.3330 O         1 <0>         0.0000
   5039 WAT       -38.1820  -72.4160   -0.0830 O         1 <0>         0.0000
   5040 WAT       -38.1820  -72.1660   -9.8330 O         1 <0>         0.0000
   5041 WAT       -38.1820  -72.1660   -9.5830 O         1 <0>         0.0000
   5042 WAT       -38.1820  -72.1660   -9.3330 O         1 <0>         0.0000
   5043 WAT       -38.1820  -72.1660   -9.0830 O         1 <0>         0.0000
   5044 WAT       -38.1820  -72.1660   -8.8330 O         1 <0>         0.0000
   5045 WAT       -38.1820  -72.1660   -8.5830 O         1 <0>         0.0000
   5046 WAT       -38.1820  -72.1660   -8.3330 O         1 <0>         0.0000
   5047 WAT       -38.1820  -72.1660   -8.0830 O         1 <0>         0.0000
   5048 WAT       -38.1820  -72.1660   -7.8330 O         1 <0>         0.0000
   5049 WAT       -38.1820  -72.1660   -7.5830 O         1 <0>         0.0000
   5050 WAT       -38.1820  -72.1660   -7.3330 O         1 <0>         0.0000
   5051 WAT       -38.1820  -72.1660   -7.0830 O         1 <0>         0.0000
   5052 WAT       -38.1820  -72.1660   -6.8330 O         1 <0>         0.0000
   5053 WAT       -38.1820  -72.1660   -6.5830 O         1 <0>         0.0000
   5054 WAT       -38.1820  -72.1660   -6.3330 O         1 <0>         0.0000
   5055 WAT       -38.1820  -72.1660   -6.0830 O         1 <0>         0.0000
   5056 WAT       -38.1820  -72.1660   -5.8330 O         1 <0>         0.0000
   5057 WAT       -38.1820  -72.1660   -5.5830 O         1 <0>         0.0000
   5058 WAT       -38.1820  -72.1660   -5.3330 O         1 <0>         0.0000
   5059 WAT       -38.1820  -72.1660   -5.0830 O         1 <0>         0.0000
   5060 WAT       -38.1820  -72.1660   -4.8330 O         1 <0>         0.0000
   5061 WAT       -38.1820  -72.1660   -4.5830 O         1 <0>         0.0000
   5062 WAT       -38.1820  -72.1660   -4.3330 O         1 <0>         0.0000
   5063 WAT       -38.1820  -72.1660   -4.0830 O         1 <0>         0.0000
   5064 WAT       -38.1820  -72.1660   -3.8330 O         1 <0>         0.0000
   5065 WAT       -38.1820  -72.1660   -3.5830 O         1 <0>         0.0000
   5066 WAT       -38.1820  -72.1660   -3.3330 O         1 <0>         0.0000
   5067 WAT       -38.1820  -72.1660   -3.0830 O         1 <0>         0.0000
   5068 WAT       -38.1820  -72.1660   -2.8330 O         1 <0>         0.0000
   5069 WAT       -38.1820  -72.1660   -2.5830 O         1 <0>         0.0000
   5070 WAT       -38.1820  -72.1660   -2.3330 O         1 <0>         0.0000
   5071 WAT       -38.1820  -72.1660   -2.0830 O         1 <0>         0.0000
   5072 WAT       -38.1820  -72.1660   -1.8330 O         1 <0>         0.0000
   5073 WAT       -38.1820  -72.1660   -1.5830 O         1 <0>         0.0000
   5074 WAT       -38.1820  -72.1660   -1.3330 O         1 <0>         0.0000
   5075 WAT       -38.1820  -72.1660   -1.0830 O         1 <0>         0.0000
   5076 WAT       -38.1820  -72.1660   -0.8330 O         1 <0>         0.0000
   5077 WAT       -38.1820  -72.1660   -0.5830 O         1 <0>         0.0000
   5078 WAT       -38.1820  -72.1660   -0.3330 O         1 <0>         0.0000
   5079 WAT       -38.1820  -72.1660   -0.0830 O         1 <0>         0.0000
   5080 WAT       -38.1820  -71.9160   -9.8330 O         1 <0>         0.0000
   5081 WAT       -38.1820  -71.9160   -9.5830 O         1 <0>         0.0000
   5082 WAT       -38.1820  -71.9160   -9.3330 O         1 <0>         0.0000
   5083 WAT       -38.1820  -71.9160   -9.0830 O         1 <0>         0.0000
   5084 WAT       -38.1820  -71.9160   -8.8330 O         1 <0>         0.0000
   5085 WAT       -38.1820  -71.9160   -8.5830 O         1 <0>         0.0000
   5086 WAT       -38.1820  -71.9160   -8.3330 O         1 <0>         0.0000
   5087 WAT       -38.1820  -71.9160   -8.0830 O         1 <0>         0.0000
   5088 WAT       -38.1820  -71.9160   -7.8330 O         1 <0>         0.0000
   5089 WAT       -38.1820  -71.9160   -7.5830 O         1 <0>         0.0000
   5090 WAT       -38.1820  -71.9160   -7.3330 O         1 <0>         0.0000
   5091 WAT       -38.1820  -71.9160   -7.0830 O         1 <0>         0.0000
   5092 WAT       -38.1820  -71.9160   -6.8330 O         1 <0>         0.0000
   5093 WAT       -38.1820  -71.9160   -6.5830 O         1 <0>         0.0000
   5094 WAT       -38.1820  -71.9160   -6.3330 O         1 <0>         0.0000
   5095 WAT       -38.1820  -71.9160   -6.0830 O         1 <0>         0.0000
   5096 WAT       -38.1820  -71.9160   -5.8330 O         1 <0>         0.0000
   5097 WAT       -38.1820  -71.9160   -5.5830 O         1 <0>         0.0000
   5098 WAT       -38.1820  -71.9160   -5.3330 O         1 <0>         0.0000
   5099 WAT       -38.1820  -71.9160   -5.0830 O         1 <0>         0.0000
   5100 WAT       -38.1820  -71.9160   -4.8330 O         1 <0>         0.0000
   5101 WAT       -38.1820  -71.9160   -4.5830 O         1 <0>         0.0000
   5102 WAT       -38.1820  -71.9160   -4.3330 O         1 <0>         0.0000
   5103 WAT       -38.1820  -71.9160   -4.0830 O         1 <0>         0.0000
   5104 WAT       -38.1820  -71.9160   -3.8330 O         1 <0>         0.0000
   5105 WAT       -38.1820  -71.9160   -3.5830 O         1 <0>         0.0000
   5106 WAT       -38.1820  -71.9160   -3.3330 O         1 <0>         0.0000
   5107 WAT       -38.1820  -71.9160   -3.0830 O         1 <0>         0.0000
   5108 WAT       -38.1820  -71.9160   -2.8330 O         1 <0>         0.0000
   5109 WAT       -38.1820  -71.9160   -2.5830 O         1 <0>         0.0000
   5110 WAT       -38.1820  -71.9160   -2.3330 O         1 <0>         0.0000
   5111 WAT       -38.1820  -71.9160   -2.0830 O         1 <0>         0.0000
   5112 WAT       -38.1820  -71.9160   -1.8330 O         1 <0>         0.0000
   5113 WAT       -38.1820  -71.9160   -1.5830 O         1 <0>         0.0000
   5114 WAT       -38.1820  -71.9160   -1.3330 O         1 <0>         0.0000
   5115 WAT       -38.1820  -71.9160   -1.0830 O         1 <0>         0.0000
   5116 WAT       -38.1820  -71.9160   -0.8330 O         1 <0>         0.0000
   5117 WAT       -38.1820  -71.9160   -0.5830 O         1 <0>         0.0000
   5118 WAT       -38.1820  -71.9160   -0.3330 O         1 <0>         0.0000
   5119 WAT       -38.1820  -71.9160   -0.0830 O         1 <0>         0.0000
   5120 WAT       -38.1820  -71.6660   -9.8330 O         1 <0>         0.0000
   5121 WAT       -38.1820  -71.6660   -9.5830 O         1 <0>         0.0000
   5122 WAT       -38.1820  -71.6660   -9.3330 O         1 <0>         0.0000
   5123 WAT       -38.1820  -71.6660   -9.0830 O         1 <0>         0.0000
   5124 WAT       -38.1820  -71.6660   -8.8330 O         1 <0>         0.0000
   5125 WAT       -38.1820  -71.6660   -8.5830 O         1 <0>         0.0000
   5126 WAT       -38.1820  -71.6660   -8.3330 O         1 <0>         0.0000
   5127 WAT       -38.1820  -71.6660   -8.0830 O         1 <0>         0.0000
   5128 WAT       -38.1820  -71.6660   -7.8330 O         1 <0>         0.0000
   5129 WAT       -38.1820  -71.6660   -7.5830 O         1 <0>         0.0000
   5130 WAT       -38.1820  -71.6660   -7.3330 O         1 <0>         0.0000
   5131 WAT       -38.1820  -71.6660   -7.0830 O         1 <0>         0.0000
   5132 WAT       -38.1820  -71.6660   -6.8330 O         1 <0>         0.0000
   5133 WAT       -38.1820  -71.6660   -6.5830 O         1 <0>         0.0000
   5134 WAT       -38.1820  -71.6660   -6.3330 O         1 <0>         0.0000
   5135 WAT       -38.1820  -71.6660   -6.0830 O         1 <0>         0.0000
   5136 WAT       -38.1820  -71.6660   -5.8330 O         1 <0>         0.0000
   5137 WAT       -38.1820  -71.6660   -5.5830 O         1 <0>         0.0000
   5138 WAT       -38.1820  -71.6660   -5.3330 O         1 <0>         0.0000
   5139 WAT       -38.1820  -71.6660   -5.0830 O         1 <0>         0.0000
   5140 WAT       -38.1820  -71.6660   -4.8330 O         1 <0>         0.0000
   5141 WAT       -38.1820  -71.6660   -4.5830 O         1 <0>         0.0000
   5142 WAT       -38.1820  -71.6660   -4.3330 O         1 <0>         0.0000
   5143 WAT       -38.1820  -71.6660   -4.0830 O         1 <0>         0.0000
   5144 WAT       -38.1820  -71.6660   -3.8330 O         1 <0>         0.0000
   5145 WAT       -38.1820  -71.6660   -3.5830 O         1 <0>         0.0000
   5146 WAT       -38.1820  -71.6660   -3.3330 O         1 <0>         0.0000
   5147 WAT       -38.1820  -71.6660   -3.0830 O         1 <0>         0.0000
   5148 WAT       -38.1820  -71.6660   -2.8330 O         1 <0>         0.0000
   5149 WAT       -38.1820  -71.6660   -2.5830 O         1 <0>         0.0000
   5150 WAT       -38.1820  -71.6660   -2.3330 O         1 <0>         0.0000
   5151 WAT       -38.1820  -71.6660   -2.0830 O         1 <0>         0.0000
   5152 WAT       -38.1820  -71.6660   -1.8330 O         1 <0>         0.0000
   5153 WAT       -38.1820  -71.6660   -1.5830 O         1 <0>         0.0000
   5154 WAT       -38.1820  -71.6660   -1.3330 O         1 <0>         0.0000
   5155 WAT       -38.1820  -71.6660   -1.0830 O         1 <0>         0.0000
   5156 WAT       -38.1820  -71.6660   -0.8330 O         1 <0>         0.0000
   5157 WAT       -38.1820  -71.6660   -0.5830 O         1 <0>         0.0000
   5158 WAT       -38.1820  -71.6660   -0.3330 O         1 <0>         0.0000
   5159 WAT       -38.1820  -71.6660   -0.0830 O         1 <0>         0.0000
   5160 WAT       -38.1820  -71.4160   -9.8330 O         1 <0>         0.0000
   5161 WAT       -38.1820  -71.4160   -9.5830 O         1 <0>         0.0000
   5162 WAT       -38.1820  -71.4160   -9.3330 O         1 <0>         0.0000
   5163 WAT       -38.1820  -71.4160   -9.0830 O         1 <0>         0.0000
   5164 WAT       -38.1820  -71.4160   -8.8330 O         1 <0>         0.0000
   5165 WAT       -38.1820  -71.4160   -8.5830 O         1 <0>         0.0000
   5166 WAT       -38.1820  -71.4160   -8.3330 O         1 <0>         0.0000
   5167 WAT       -38.1820  -71.4160   -8.0830 O         1 <0>         0.0000
   5168 WAT       -38.1820  -71.4160   -7.8330 O         1 <0>         0.0000
   5169 WAT       -38.1820  -71.4160   -7.5830 O         1 <0>         0.0000
   5170 WAT       -38.1820  -71.4160   -7.3330 O         1 <0>         0.0000
   5171 WAT       -38.1820  -71.4160   -7.0830 O         1 <0>         0.0000
   5172 WAT       -38.1820  -71.4160   -6.8330 O         1 <0>         0.0000
   5173 WAT       -38.1820  -71.4160   -6.5830 O         1 <0>         0.0000
   5174 WAT       -38.1820  -71.4160   -6.3330 O         1 <0>         0.0000
   5175 WAT       -38.1820  -71.4160   -6.0830 O         1 <0>         0.0000
   5176 WAT       -38.1820  -71.4160   -5.8330 O         1 <0>         0.0000
   5177 WAT       -38.1820  -71.4160   -5.5830 O         1 <0>         0.0000
   5178 WAT       -38.1820  -71.4160   -5.3330 O         1 <0>         0.0000
   5179 WAT       -38.1820  -71.4160   -5.0830 O         1 <0>         0.0000
   5180 WAT       -38.1820  -71.4160   -4.8330 O         1 <0>         0.0000
   5181 WAT       -38.1820  -71.4160   -4.5830 O         1 <0>         0.0000
   5182 WAT       -38.1820  -71.4160   -4.3330 O         1 <0>         0.0000
   5183 WAT       -38.1820  -71.4160   -4.0830 O         1 <0>         0.0000
   5184 WAT       -38.1820  -71.4160   -3.8330 O         1 <0>         0.0000
   5185 WAT       -38.1820  -71.4160   -3.5830 O         1 <0>         0.0000
   5186 WAT       -38.1820  -71.4160   -3.3330 O         1 <0>         0.0000
   5187 WAT       -38.1820  -71.4160   -3.0830 O         1 <0>         0.0000
   5188 WAT       -38.1820  -71.4160   -2.8330 O         1 <0>         0.0000
   5189 WAT       -38.1820  -71.4160   -2.5830 O         1 <0>         0.0000
   5190 WAT       -38.1820  -71.4160   -2.3330 O         1 <0>         0.0000
   5191 WAT       -38.1820  -71.4160   -2.0830 O         1 <0>         0.0000
   5192 WAT       -38.1820  -71.4160   -1.8330 O         1 <0>         0.0000
   5193 WAT       -38.1820  -71.4160   -1.5830 O         1 <0>         0.0000
   5194 WAT       -38.1820  -71.4160   -1.3330 O         1 <0>         0.0000
   5195 WAT       -38.1820  -71.4160   -1.0830 O         1 <0>         0.0000
   5196 WAT       -38.1820  -71.4160   -0.8330 O         1 <0>         0.0000
   5197 WAT       -38.1820  -71.4160   -0.5830 O         1 <0>         0.0000
   5198 WAT       -38.1820  -71.4160   -0.3330 O         1 <0>         0.0000
   5199 WAT       -38.1820  -71.4160   -0.0830 O         1 <0>         0.0000
   5200 WAT       -38.1820  -71.1660   -9.8330 O         1 <0>         0.0000
   5201 WAT       -38.1820  -71.1660   -9.5830 O         1 <0>         0.0000
   5202 WAT       -38.1820  -71.1660   -9.3330 O         1 <0>         0.0000
   5203 WAT       -38.1820  -71.1660   -9.0830 O         1 <0>         0.0000
   5204 WAT       -38.1820  -71.1660   -8.8330 O         1 <0>         0.0000
   5205 WAT       -38.1820  -71.1660   -8.5830 O         1 <0>         0.0000
   5206 WAT       -38.1820  -71.1660   -8.3330 O         1 <0>         0.0000
   5207 WAT       -38.1820  -71.1660   -8.0830 O         1 <0>         0.0000
   5208 WAT       -38.1820  -71.1660   -7.8330 O         1 <0>         0.0000
   5209 WAT       -38.1820  -71.1660   -7.5830 O         1 <0>         0.0000
   5210 WAT       -38.1820  -71.1660   -7.3330 O         1 <0>         0.0000
   5211 WAT       -38.1820  -71.1660   -7.0830 O         1 <0>         0.0000
   5212 WAT       -38.1820  -71.1660   -6.8330 O         1 <0>         0.0000
   5213 WAT       -38.1820  -71.1660   -6.5830 O         1 <0>         0.0000
   5214 WAT       -38.1820  -71.1660   -6.3330 O         1 <0>         0.0000
   5215 WAT       -38.1820  -71.1660   -6.0830 O         1 <0>         0.0000
   5216 WAT       -38.1820  -71.1660   -5.8330 O         1 <0>         0.0000
   5217 WAT       -38.1820  -71.1660   -5.5830 O         1 <0>         0.0000
   5218 WAT       -38.1820  -71.1660   -5.3330 O         1 <0>         0.0000
   5219 WAT       -38.1820  -71.1660   -5.0830 O         1 <0>         0.0000
   5220 WAT       -38.1820  -71.1660   -4.8330 O         1 <0>         0.0000
   5221 WAT       -38.1820  -71.1660   -4.5830 O         1 <0>         0.0000
   5222 WAT       -38.1820  -71.1660   -4.3330 O         1 <0>         0.0000
   5223 WAT       -38.1820  -71.1660   -4.0830 O         1 <0>         0.0000
   5224 WAT       -38.1820  -71.1660   -3.8330 O         1 <0>         0.0000
   5225 WAT       -38.1820  -71.1660   -3.5830 O         1 <0>         0.0000
   5226 WAT       -38.1820  -71.1660   -3.3330 O         1 <0>         0.0000
   5227 WAT       -38.1820  -71.1660   -3.0830 O         1 <0>         0.0000
   5228 WAT       -38.1820  -71.1660   -2.8330 O         1 <0>         0.0000
   5229 WAT       -38.1820  -71.1660   -2.5830 O         1 <0>         0.0000
   5230 WAT       -38.1820  -71.1660   -2.3330 O         1 <0>         0.0000
   5231 WAT       -38.1820  -71.1660   -2.0830 O         1 <0>         0.0000
   5232 WAT       -38.1820  -71.1660   -1.8330 O         1 <0>         0.0000
   5233 WAT       -38.1820  -71.1660   -1.5830 O         1 <0>         0.0000
   5234 WAT       -38.1820  -71.1660   -1.3330 O         1 <0>         0.0000
   5235 WAT       -38.1820  -71.1660   -1.0830 O         1 <0>         0.0000
   5236 WAT       -38.1820  -71.1660   -0.8330 O         1 <0>         0.0000
   5237 WAT       -38.1820  -71.1660   -0.5830 O         1 <0>         0.0000
   5238 WAT       -38.1820  -71.1660   -0.3330 O         1 <0>         0.0000
   5239 WAT       -38.1820  -71.1660   -0.0830 O         1 <0>         0.0000
   5240 WAT       -38.1820  -70.9160   -9.8330 O         1 <0>         0.0000
   5241 WAT       -38.1820  -70.9160   -9.5830 O         1 <0>         0.0000
   5242 WAT       -38.1820  -70.9160   -9.3330 O         1 <0>         0.0000
   5243 WAT       -38.1820  -70.9160   -9.0830 O         1 <0>         0.0000
   5244 WAT       -38.1820  -70.9160   -8.8330 O         1 <0>         0.0000
   5245 WAT       -38.1820  -70.9160   -8.5830 O         1 <0>         0.0000
   5246 WAT       -38.1820  -70.9160   -8.3330 O         1 <0>         0.0000
   5247 WAT       -38.1820  -70.9160   -8.0830 O         1 <0>         0.0000
   5248 WAT       -38.1820  -70.9160   -7.8330 O         1 <0>         0.0000
   5249 WAT       -38.1820  -70.9160   -7.5830 O         1 <0>         0.0000
   5250 WAT       -38.1820  -70.9160   -7.3330 O         1 <0>         0.0000
   5251 WAT       -38.1820  -70.9160   -7.0830 O         1 <0>         0.0000
   5252 WAT       -38.1820  -70.9160   -6.8330 O         1 <0>         0.0000
   5253 WAT       -38.1820  -70.9160   -6.5830 O         1 <0>         0.0000
   5254 WAT       -38.1820  -70.9160   -6.3330 O         1 <0>         0.0000
   5255 WAT       -38.1820  -70.9160   -6.0830 O         1 <0>         0.0000
   5256 WAT       -38.1820  -70.9160   -5.8330 O         1 <0>         0.0000
   5257 WAT       -38.1820  -70.9160   -5.5830 O         1 <0>         0.0000
   5258 WAT       -38.1820  -70.9160   -5.3330 O         1 <0>         0.0000
   5259 WAT       -38.1820  -70.9160   -5.0830 O         1 <0>         0.0000
   5260 WAT       -38.1820  -70.9160   -4.8330 O         1 <0>         0.0000
   5261 WAT       -38.1820  -70.9160   -4.5830 O         1 <0>         0.0000
   5262 WAT       -38.1820  -70.9160   -4.3330 O         1 <0>         0.0000
   5263 WAT       -38.1820  -70.9160   -4.0830 O         1 <0>         0.0000
   5264 WAT       -38.1820  -70.9160   -3.8330 O         1 <0>         0.0000
   5265 WAT       -38.1820  -70.9160   -3.5830 O         1 <0>         0.0000
   5266 WAT       -38.1820  -70.9160   -3.3330 O         1 <0>         0.0000
   5267 WAT       -38.1820  -70.9160   -3.0830 O         1 <0>         0.0000
   5268 WAT       -38.1820  -70.9160   -2.8330 O         1 <0>         0.0000
   5269 WAT       -38.1820  -70.9160   -2.5830 O         1 <0>         0.0000
   5270 WAT       -38.1820  -70.9160   -2.3330 O         1 <0>         0.0000
   5271 WAT       -38.1820  -70.9160   -2.0830 O         1 <0>         0.0000
   5272 WAT       -38.1820  -70.9160   -1.8330 O         1 <0>         0.0000
   5273 WAT       -38.1820  -70.9160   -1.5830 O         1 <0>         0.0000
   5274 WAT       -38.1820  -70.9160   -1.3330 O         1 <0>         0.0000
   5275 WAT       -38.1820  -70.9160   -1.0830 O         1 <0>         0.0000
   5276 WAT       -38.1820  -70.9160   -0.8330 O         1 <0>         0.0000
   5277 WAT       -38.1820  -70.9160   -0.5830 O         1 <0>         0.0000
   5278 WAT       -38.1820  -70.9160   -0.3330 O         1 <0>         0.0000
   5279 WAT       -38.1820  -70.9160   -0.0830 O         1 <0>         0.0000
   5280 WAT       -38.1820  -70.6660   -9.8330 O         1 <0>         0.0000
   5281 WAT       -38.1820  -70.6660   -9.5830 O         1 <0>         0.0000
   5282 WAT       -38.1820  -70.6660   -9.3330 O         1 <0>         0.0000
   5283 WAT       -38.1820  -70.6660   -9.0830 O         1 <0>         0.0000
   5284 WAT       -38.1820  -70.6660   -8.8330 O         1 <0>         0.0000
   5285 WAT       -38.1820  -70.6660   -8.5830 O         1 <0>         0.0000
   5286 WAT       -38.1820  -70.6660   -8.3330 O         1 <0>         0.0000
   5287 WAT       -38.1820  -70.6660   -8.0830 O         1 <0>         0.0000
   5288 WAT       -38.1820  -70.6660   -7.8330 O         1 <0>         0.0000
   5289 WAT       -38.1820  -70.6660   -7.5830 O         1 <0>         0.0000
   5290 WAT       -38.1820  -70.6660   -7.3330 O         1 <0>         0.0000
   5291 WAT       -38.1820  -70.6660   -7.0830 O         1 <0>         0.0000
   5292 WAT       -38.1820  -70.6660   -6.8330 O         1 <0>         0.0000
   5293 WAT       -38.1820  -70.6660   -6.5830 O         1 <0>         0.0000
   5294 WAT       -38.1820  -70.6660   -6.3330 O         1 <0>         0.0000
   5295 WAT       -38.1820  -70.6660   -6.0830 O         1 <0>         0.0000
   5296 WAT       -38.1820  -70.6660   -5.8330 O         1 <0>         0.0000
   5297 WAT       -38.1820  -70.6660   -5.5830 O         1 <0>         0.0000
   5298 WAT       -38.1820  -70.6660   -5.3330 O         1 <0>         0.0000
   5299 WAT       -38.1820  -70.6660   -5.0830 O         1 <0>         0.0000
   5300 WAT       -38.1820  -70.6660   -4.8330 O         1 <0>         0.0000
   5301 WAT       -38.1820  -70.6660   -4.5830 O         1 <0>         0.0000
   5302 WAT       -38.1820  -70.6660   -4.3330 O         1 <0>         0.0000
   5303 WAT       -38.1820  -70.6660   -4.0830 O         1 <0>         0.0000
   5304 WAT       -38.1820  -70.6660   -3.8330 O         1 <0>         0.0000
   5305 WAT       -38.1820  -70.6660   -3.5830 O         1 <0>         0.0000
   5306 WAT       -38.1820  -70.6660   -3.3330 O         1 <0>         0.0000
   5307 WAT       -38.1820  -70.6660   -3.0830 O         1 <0>         0.0000
   5308 WAT       -38.1820  -70.6660   -2.8330 O         1 <0>         0.0000
   5309 WAT       -38.1820  -70.6660   -2.5830 O         1 <0>         0.0000
   5310 WAT       -38.1820  -70.6660   -2.3330 O         1 <0>         0.0000
   5311 WAT       -38.1820  -70.6660   -2.0830 O         1 <0>         0.0000
   5312 WAT       -38.1820  -70.6660   -1.8330 O         1 <0>         0.0000
   5313 WAT       -38.1820  -70.6660   -1.5830 O         1 <0>         0.0000
   5314 WAT       -38.1820  -70.6660   -1.3330 O         1 <0>         0.0000
   5315 WAT       -38.1820  -70.6660   -1.0830 O         1 <0>         0.0000
   5316 WAT       -38.1820  -70.6660   -0.8330 O         1 <0>         0.0000
   5317 WAT       -38.1820  -70.6660   -0.5830 O         1 <0>         0.0000
   5318 WAT       -38.1820  -70.6660   -0.3330 O         1 <0>         0.0000
   5319 WAT       -38.1820  -70.6660   -0.0830 O         1 <0>         0.0000
   5320 WAT       -38.1820  -70.4160   -9.8330 O         1 <0>         0.0000
   5321 WAT       -38.1820  -70.4160   -9.5830 O         1 <0>         0.0000
   5322 WAT       -38.1820  -70.4160   -9.3330 O         1 <0>         0.0000
   5323 WAT       -38.1820  -70.4160   -9.0830 O         1 <0>         0.0000
   5324 WAT       -38.1820  -70.4160   -8.8330 O         1 <0>         0.0000
   5325 WAT       -38.1820  -70.4160   -8.5830 O         1 <0>         0.0000
   5326 WAT       -38.1820  -70.4160   -8.3330 O         1 <0>         0.0000
   5327 WAT       -38.1820  -70.4160   -8.0830 O         1 <0>         0.0000
   5328 WAT       -38.1820  -70.4160   -7.8330 O         1 <0>         0.0000
   5329 WAT       -38.1820  -70.4160   -7.5830 O         1 <0>         0.0000
   5330 WAT       -38.1820  -70.4160   -7.3330 O         1 <0>         0.0000
   5331 WAT       -38.1820  -70.4160   -7.0830 O         1 <0>         0.0000
   5332 WAT       -38.1820  -70.4160   -6.8330 O         1 <0>         0.0000
   5333 WAT       -38.1820  -70.4160   -6.5830 O         1 <0>         0.0000
   5334 WAT       -38.1820  -70.4160   -6.3330 O         1 <0>         0.0000
   5335 WAT       -38.1820  -70.4160   -6.0830 O         1 <0>         0.0000
   5336 WAT       -38.1820  -70.4160   -5.8330 O         1 <0>         0.0000
   5337 WAT       -38.1820  -70.4160   -5.5830 O         1 <0>         0.0000
   5338 WAT       -38.1820  -70.4160   -5.3330 O         1 <0>         0.0000
   5339 WAT       -38.1820  -70.4160   -5.0830 O         1 <0>         0.0000
   5340 WAT       -38.1820  -70.4160   -4.8330 O         1 <0>         0.0000
   5341 WAT       -38.1820  -70.4160   -4.5830 O         1 <0>         0.0000
   5342 WAT       -38.1820  -70.4160   -4.3330 O         1 <0>         0.0000
   5343 WAT       -38.1820  -70.4160   -4.0830 O         1 <0>         0.0000
   5344 WAT       -38.1820  -70.4160   -3.8330 O         1 <0>         0.0000
   5345 WAT       -38.1820  -70.4160   -3.5830 O         1 <0>         0.0000
   5346 WAT       -38.1820  -70.4160   -3.3330 O         1 <0>         0.0000
   5347 WAT       -38.1820  -70.4160   -3.0830 O         1 <0>         0.0000
   5348 WAT       -38.1820  -70.4160   -2.8330 O         1 <0>         0.0000
   5349 WAT       -38.1820  -70.4160   -2.5830 O         1 <0>         0.0000
   5350 WAT       -38.1820  -70.4160   -2.3330 O         1 <0>         0.0000
   5351 WAT       -38.1820  -70.4160   -2.0830 O         1 <0>         0.0000
   5352 WAT       -38.1820  -70.4160   -1.8330 O         1 <0>         0.0000
   5353 WAT       -38.1820  -70.4160   -1.5830 O         1 <0>         0.0000
   5354 WAT       -38.1820  -70.4160   -1.3330 O         1 <0>         0.0000
   5355 WAT       -38.1820  -70.4160   -1.0830 O         1 <0>         0.0000
   5356 WAT       -38.1820  -70.4160   -0.8330 O         1 <0>         0.0000
   5357 WAT       -38.1820  -70.4160   -0.5830 O         1 <0>         0.0000
   5358 WAT       -38.1820  -70.4160   -0.3330 O         1 <0>         0.0000
   5359 WAT       -38.1820  -70.4160   -0.0830 O         1 <0>         0.0000
   5360 WAT       -38.1820  -70.1660   -9.8330 O         1 <0>         0.0000
   5361 WAT       -38.1820  -70.1660   -9.5830 O         1 <0>         0.0000
   5362 WAT       -38.1820  -70.1660   -9.3330 O         1 <0>         0.0000
   5363 WAT       -38.1820  -70.1660   -9.0830 O         1 <0>         0.0000
   5364 WAT       -38.1820  -70.1660   -8.8330 O         1 <0>         0.0000
   5365 WAT       -38.1820  -70.1660   -8.5830 O         1 <0>         0.0000
   5366 WAT       -38.1820  -70.1660   -8.3330 O         1 <0>         0.0000
   5367 WAT       -38.1820  -70.1660   -8.0830 O         1 <0>         0.0000
   5368 WAT       -38.1820  -70.1660   -7.8330 O         1 <0>         0.0000
   5369 WAT       -38.1820  -70.1660   -7.5830 O         1 <0>         0.0000
   5370 WAT       -38.1820  -70.1660   -7.3330 O         1 <0>         0.0000
   5371 WAT       -38.1820  -70.1660   -7.0830 O         1 <0>         0.0000
   5372 WAT       -38.1820  -70.1660   -6.8330 O         1 <0>         0.0000
   5373 WAT       -38.1820  -70.1660   -6.5830 O         1 <0>         0.0000
   5374 WAT       -38.1820  -70.1660   -6.3330 O         1 <0>         0.0000
   5375 WAT       -38.1820  -70.1660   -6.0830 O         1 <0>         0.0000
   5376 WAT       -38.1820  -70.1660   -5.8330 O         1 <0>         0.0000
   5377 WAT       -38.1820  -70.1660   -5.5830 O         1 <0>         0.0000
   5378 WAT       -38.1820  -70.1660   -5.3330 O         1 <0>         0.0000
   5379 WAT       -38.1820  -70.1660   -5.0830 O         1 <0>         0.0000
   5380 WAT       -38.1820  -70.1660   -4.8330 O         1 <0>         0.0000
   5381 WAT       -38.1820  -70.1660   -4.5830 O         1 <0>         0.0000
   5382 WAT       -38.1820  -70.1660   -4.3330 O         1 <0>         0.0000
   5383 WAT       -38.1820  -70.1660   -4.0830 O         1 <0>         0.0000
   5384 WAT       -38.1820  -70.1660   -3.8330 O         1 <0>         0.0000
   5385 WAT       -38.1820  -70.1660   -3.5830 O         1 <0>         0.0000
   5386 WAT       -38.1820  -70.1660   -3.3330 O         1 <0>         0.0000
   5387 WAT       -38.1820  -70.1660   -3.0830 O         1 <0>         0.0000
   5388 WAT       -38.1820  -70.1660   -2.8330 O         1 <0>         0.0000
   5389 WAT       -38.1820  -70.1660   -2.5830 O         1 <0>         0.0000
   5390 WAT       -38.1820  -70.1660   -2.3330 O         1 <0>         0.0000
   5391 WAT       -38.1820  -70.1660   -2.0830 O         1 <0>         0.0000
   5392 WAT       -38.1820  -70.1660   -1.8330 O         1 <0>         0.0000
   5393 WAT       -38.1820  -70.1660   -1.5830 O         1 <0>         0.0000
   5394 WAT       -38.1820  -70.1660   -1.3330 O         1 <0>         0.0000
   5395 WAT       -38.1820  -70.1660   -1.0830 O         1 <0>         0.0000
   5396 WAT       -38.1820  -70.1660   -0.8330 O         1 <0>         0.0000
   5397 WAT       -38.1820  -70.1660   -0.5830 O         1 <0>         0.0000
   5398 WAT       -38.1820  -70.1660   -0.3330 O         1 <0>         0.0000
   5399 WAT       -38.1820  -70.1660   -0.0830 O         1 <0>         0.0000
   5400 WAT       -38.1820  -69.9160   -9.8330 O         1 <0>         0.0000
   5401 WAT       -38.1820  -69.9160   -9.5830 O         1 <0>         0.0000
   5402 WAT       -38.1820  -69.9160   -9.3330 O         1 <0>         0.0000
   5403 WAT       -38.1820  -69.9160   -9.0830 O         1 <0>         0.0000
   5404 WAT       -38.1820  -69.9160   -8.8330 O         1 <0>         0.0000
   5405 WAT       -38.1820  -69.9160   -8.5830 O         1 <0>         0.0000
   5406 WAT       -38.1820  -69.9160   -8.3330 O         1 <0>         0.0000
   5407 WAT       -38.1820  -69.9160   -8.0830 O         1 <0>         0.0000
   5408 WAT       -38.1820  -69.9160   -7.8330 O         1 <0>         0.0000
   5409 WAT       -38.1820  -69.9160   -7.5830 O         1 <0>         0.0000
   5410 WAT       -38.1820  -69.9160   -7.3330 O         1 <0>         0.0000
   5411 WAT       -38.1820  -69.9160   -7.0830 O         1 <0>         0.0000
   5412 WAT       -38.1820  -69.9160   -6.8330 O         1 <0>         0.0000
   5413 WAT       -38.1820  -69.9160   -6.5830 O         1 <0>         0.0000
   5414 WAT       -38.1820  -69.9160   -6.3330 O         1 <0>         0.0000
   5415 WAT       -38.1820  -69.9160   -6.0830 O         1 <0>         0.0000
   5416 WAT       -38.1820  -69.9160   -5.8330 O         1 <0>         0.0000
   5417 WAT       -38.1820  -69.9160   -5.5830 O         1 <0>         0.0000
   5418 WAT       -38.1820  -69.9160   -5.3330 O         1 <0>         0.0000
   5419 WAT       -38.1820  -69.9160   -5.0830 O         1 <0>         0.0000
   5420 WAT       -38.1820  -69.9160   -4.8330 O         1 <0>         0.0000
   5421 WAT       -38.1820  -69.9160   -4.5830 O         1 <0>         0.0000
   5422 WAT       -38.1820  -69.9160   -4.3330 O         1 <0>         0.0000
   5423 WAT       -38.1820  -69.9160   -4.0830 O         1 <0>         0.0000
   5424 WAT       -38.1820  -69.9160   -3.8330 O         1 <0>         0.0000
   5425 WAT       -38.1820  -69.9160   -3.5830 O         1 <0>         0.0000
   5426 WAT       -38.1820  -69.9160   -3.3330 O         1 <0>         0.0000
   5427 WAT       -38.1820  -69.9160   -3.0830 O         1 <0>         0.0000
   5428 WAT       -38.1820  -69.9160   -2.8330 O         1 <0>         0.0000
   5429 WAT       -38.1820  -69.9160   -2.5830 O         1 <0>         0.0000
   5430 WAT       -38.1820  -69.9160   -2.3330 O         1 <0>         0.0000
   5431 WAT       -38.1820  -69.9160   -2.0830 O         1 <0>         0.0000
   5432 WAT       -38.1820  -69.9160   -1.8330 O         1 <0>         0.0000
   5433 WAT       -38.1820  -69.9160   -1.5830 O         1 <0>         0.0000
   5434 WAT       -38.1820  -69.9160   -1.3330 O         1 <0>         0.0000
   5435 WAT       -38.1820  -69.9160   -1.0830 O         1 <0>         0.0000
   5436 WAT       -38.1820  -69.9160   -0.8330 O         1 <0>         0.0000
   5437 WAT       -38.1820  -69.9160   -0.5830 O         1 <0>         0.0000
   5438 WAT       -38.1820  -69.9160   -0.3330 O         1 <0>         0.0000
   5439 WAT       -38.1820  -69.9160   -0.0830 O         1 <0>         0.0000
   5440 WAT       -38.1820  -69.6660   -9.8330 O         1 <0>         0.0000
   5441 WAT       -38.1820  -69.6660   -9.5830 O         1 <0>         0.0000
   5442 WAT       -38.1820  -69.6660   -9.3330 O         1 <0>         0.0000
   5443 WAT       -38.1820  -69.6660   -9.0830 O         1 <0>         0.0000
   5444 WAT       -38.1820  -69.6660   -8.8330 O         1 <0>         0.0000
   5445 WAT       -38.1820  -69.6660   -8.5830 O         1 <0>         0.0000
   5446 WAT       -38.1820  -69.6660   -8.3330 O         1 <0>         0.0000
   5447 WAT       -38.1820  -69.6660   -8.0830 O         1 <0>         0.0000
   5448 WAT       -38.1820  -69.6660   -7.8330 O         1 <0>         0.0000
   5449 WAT       -38.1820  -69.6660   -7.5830 O         1 <0>         0.0000
   5450 WAT       -38.1820  -69.6660   -7.3330 O         1 <0>         0.0000
   5451 WAT       -38.1820  -69.6660   -7.0830 O         1 <0>         0.0000
   5452 WAT       -38.1820  -69.6660   -6.8330 O         1 <0>         0.0000
   5453 WAT       -38.1820  -69.6660   -6.5830 O         1 <0>         0.0000
   5454 WAT       -38.1820  -69.6660   -6.3330 O         1 <0>         0.0000
   5455 WAT       -38.1820  -69.6660   -6.0830 O         1 <0>         0.0000
   5456 WAT       -38.1820  -69.6660   -5.8330 O         1 <0>         0.0000
   5457 WAT       -38.1820  -69.6660   -5.5830 O         1 <0>         0.0000
   5458 WAT       -38.1820  -69.6660   -5.3330 O         1 <0>         0.0000
   5459 WAT       -38.1820  -69.6660   -5.0830 O         1 <0>         0.0000
   5460 WAT       -38.1820  -69.6660   -4.8330 O         1 <0>         0.0000
   5461 WAT       -38.1820  -69.6660   -4.5830 O         1 <0>         0.0000
   5462 WAT       -38.1820  -69.6660   -4.3330 O         1 <0>         0.0000
   5463 WAT       -38.1820  -69.6660   -4.0830 O         1 <0>         0.0000
   5464 WAT       -38.1820  -69.6660   -3.8330 O         1 <0>         0.0000
   5465 WAT       -38.1820  -69.6660   -3.5830 O         1 <0>         0.0000
   5466 WAT       -38.1820  -69.6660   -3.3330 O         1 <0>         0.0000
   5467 WAT       -38.1820  -69.6660   -3.0830 O         1 <0>         0.0000
   5468 WAT       -38.1820  -69.6660   -2.8330 O         1 <0>         0.0000
   5469 WAT       -38.1820  -69.6660   -2.5830 O         1 <0>         0.0000
   5470 WAT       -38.1820  -69.6660   -2.3330 O         1 <0>         0.0000
   5471 WAT       -38.1820  -69.6660   -2.0830 O         1 <0>         0.0000
   5472 WAT       -38.1820  -69.6660   -1.8330 O         1 <0>         0.0000
   5473 WAT       -38.1820  -69.6660   -1.5830 O         1 <0>         0.0000
   5474 WAT       -38.1820  -69.6660   -1.3330 O         1 <0>         0.0000
   5475 WAT       -38.1820  -69.6660   -1.0830 O         1 <0>         0.0000
   5476 WAT       -38.1820  -69.6660   -0.8330 O         1 <0>         0.0000
   5477 WAT       -38.1820  -69.6660   -0.5830 O         1 <0>         0.0000
   5478 WAT       -38.1820  -69.6660   -0.3330 O         1 <0>         0.0000
   5479 WAT       -38.1820  -69.6660   -0.0830 O         1 <0>         0.0000
   5480 WAT       -38.1820  -69.4160   -9.8330 O         1 <0>         0.0000
   5481 WAT       -38.1820  -69.4160   -9.5830 O         1 <0>         0.0000
   5482 WAT       -38.1820  -69.4160   -9.3330 O         1 <0>         0.0000
   5483 WAT       -38.1820  -69.4160   -9.0830 O         1 <0>         0.0000
   5484 WAT       -38.1820  -69.4160   -8.8330 O         1 <0>         0.0000
   5485 WAT       -38.1820  -69.4160   -8.5830 O         1 <0>         0.0000
   5486 WAT       -38.1820  -69.4160   -8.3330 O         1 <0>         0.0000
   5487 WAT       -38.1820  -69.4160   -8.0830 O         1 <0>         0.0000
   5488 WAT       -38.1820  -69.4160   -7.8330 O         1 <0>         0.0000
   5489 WAT       -38.1820  -69.4160   -7.5830 O         1 <0>         0.0000
   5490 WAT       -38.1820  -69.4160   -7.3330 O         1 <0>         0.0000
   5491 WAT       -38.1820  -69.4160   -7.0830 O         1 <0>         0.0000
   5492 WAT       -38.1820  -69.4160   -6.8330 O         1 <0>         0.0000
   5493 WAT       -38.1820  -69.4160   -6.5830 O         1 <0>         0.0000
   5494 WAT       -38.1820  -69.4160   -6.3330 O         1 <0>         0.0000
   5495 WAT       -38.1820  -69.4160   -6.0830 O         1 <0>         0.0000
   5496 WAT       -38.1820  -69.4160   -5.8330 O         1 <0>         0.0000
   5497 WAT       -38.1820  -69.4160   -5.5830 O         1 <0>         0.0000
   5498 WAT       -38.1820  -69.4160   -5.3330 O         1 <0>         0.0000
   5499 WAT       -38.1820  -69.4160   -5.0830 O         1 <0>         0.0000
   5500 WAT       -38.1820  -69.4160   -4.8330 O         1 <0>         0.0000
   5501 WAT       -38.1820  -69.4160   -4.5830 O         1 <0>         0.0000
   5502 WAT       -38.1820  -69.4160   -4.3330 O         1 <0>         0.0000
   5503 WAT       -38.1820  -69.4160   -4.0830 O         1 <0>         0.0000
   5504 WAT       -38.1820  -69.4160   -3.8330 O         1 <0>         0.0000
   5505 WAT       -38.1820  -69.4160   -3.5830 O         1 <0>         0.0000
   5506 WAT       -38.1820  -69.4160   -3.3330 O         1 <0>         0.0000
   5507 WAT       -38.1820  -69.4160   -3.0830 O         1 <0>         0.0000
   5508 WAT       -38.1820  -69.4160   -2.8330 O         1 <0>         0.0000
   5509 WAT       -38.1820  -69.4160   -2.5830 O         1 <0>         0.0000
   5510 WAT       -38.1820  -69.4160   -2.3330 O         1 <0>         0.0000
   5511 WAT       -38.1820  -69.4160   -2.0830 O         1 <0>         0.0000
   5512 WAT       -38.1820  -69.4160   -1.8330 O         1 <0>         0.0000
   5513 WAT       -38.1820  -69.4160   -1.5830 O         1 <0>         0.0000
   5514 WAT       -38.1820  -69.4160   -1.3330 O         1 <0>         0.0000
   5515 WAT       -38.1820  -69.4160   -1.0830 O         1 <0>         0.0000
   5516 WAT       -38.1820  -69.4160   -0.8330 O         1 <0>         0.0000
   5517 WAT       -38.1820  -69.4160   -0.5830 O         1 <0>         0.0000
   5518 WAT       -38.1820  -69.4160   -0.3330 O         1 <0>         0.0000
   5519 WAT       -38.1820  -69.4160   -0.0830 O         1 <0>         0.0000
   5520 WAT       -38.1820  -69.1660   -9.8330 O         1 <0>         0.0000
   5521 WAT       -38.1820  -69.1660   -9.5830 O         1 <0>         0.0000
   5522 WAT       -38.1820  -69.1660   -9.3330 O         1 <0>         0.0000
   5523 WAT       -38.1820  -69.1660   -9.0830 O         1 <0>         0.0000
   5524 WAT       -38.1820  -69.1660   -8.8330 O         1 <0>         0.0000
   5525 WAT       -38.1820  -69.1660   -8.5830 O         1 <0>         0.0000
   5526 WAT       -38.1820  -69.1660   -8.3330 O         1 <0>         0.0000
   5527 WAT       -38.1820  -69.1660   -8.0830 O         1 <0>         0.0000
   5528 WAT       -38.1820  -69.1660   -7.8330 O         1 <0>         0.0000
   5529 WAT       -38.1820  -69.1660   -7.5830 O         1 <0>         0.0000
   5530 WAT       -38.1820  -69.1660   -7.3330 O         1 <0>         0.0000
   5531 WAT       -38.1820  -69.1660   -7.0830 O         1 <0>         0.0000
   5532 WAT       -38.1820  -69.1660   -6.8330 O         1 <0>         0.0000
   5533 WAT       -38.1820  -69.1660   -6.5830 O         1 <0>         0.0000
   5534 WAT       -38.1820  -69.1660   -6.3330 O         1 <0>         0.0000
   5535 WAT       -38.1820  -69.1660   -6.0830 O         1 <0>         0.0000
   5536 WAT       -38.1820  -69.1660   -5.8330 O         1 <0>         0.0000
   5537 WAT       -38.1820  -69.1660   -5.5830 O         1 <0>         0.0000
   5538 WAT       -38.1820  -69.1660   -5.3330 O         1 <0>         0.0000
   5539 WAT       -38.1820  -69.1660   -5.0830 O         1 <0>         0.0000
   5540 WAT       -38.1820  -69.1660   -4.8330 O         1 <0>         0.0000
   5541 WAT       -38.1820  -69.1660   -4.5830 O         1 <0>         0.0000
   5542 WAT       -38.1820  -69.1660   -4.3330 O         1 <0>         0.0000
   5543 WAT       -38.1820  -69.1660   -4.0830 O         1 <0>         0.0000
   5544 WAT       -38.1820  -69.1660   -3.8330 O         1 <0>         0.0000
   5545 WAT       -38.1820  -69.1660   -3.5830 O         1 <0>         0.0000
   5546 WAT       -38.1820  -69.1660   -3.3330 O         1 <0>         0.0000
   5547 WAT       -38.1820  -69.1660   -3.0830 O         1 <0>         0.0000
   5548 WAT       -38.1820  -69.1660   -2.8330 O         1 <0>         0.0000
   5549 WAT       -38.1820  -69.1660   -2.5830 O         1 <0>         0.0000
   5550 WAT       -38.1820  -69.1660   -2.3330 O         1 <0>         0.0000
   5551 WAT       -38.1820  -69.1660   -2.0830 O         1 <0>         0.0000
   5552 WAT       -38.1820  -69.1660   -1.8330 O         1 <0>         0.0000
   5553 WAT       -38.1820  -69.1660   -1.5830 O         1 <0>         0.0000
   5554 WAT       -38.1820  -69.1660   -1.3330 O         1 <0>         0.0000
   5555 WAT       -38.1820  -69.1660   -1.0830 O         1 <0>         0.0000
   5556 WAT       -38.1820  -69.1660   -0.8330 O         1 <0>         0.0000
   5557 WAT       -38.1820  -69.1660   -0.5830 O         1 <0>         0.0000
   5558 WAT       -38.1820  -69.1660   -0.3330 O         1 <0>         0.0000
   5559 WAT       -38.1820  -69.1660   -0.0830 O         1 <0>         0.0000
   5560 WAT       -38.1820  -68.9160   -9.8330 O         1 <0>         0.0000
   5561 WAT       -38.1820  -68.9160   -9.5830 O         1 <0>         0.0000
   5562 WAT       -38.1820  -68.9160   -9.3330 O         1 <0>         0.0000
   5563 WAT       -38.1820  -68.9160   -9.0830 O         1 <0>         0.0000
   5564 WAT       -38.1820  -68.9160   -8.8330 O         1 <0>         0.0000
   5565 WAT       -38.1820  -68.9160   -8.5830 O         1 <0>         0.0000
   5566 WAT       -38.1820  -68.9160   -8.3330 O         1 <0>         0.0000
   5567 WAT       -38.1820  -68.9160   -8.0830 O         1 <0>         0.0000
   5568 WAT       -38.1820  -68.9160   -7.8330 O         1 <0>         0.0000
   5569 WAT       -38.1820  -68.9160   -7.5830 O         1 <0>         0.0000
   5570 WAT       -38.1820  -68.9160   -7.3330 O         1 <0>         0.0000
   5571 WAT       -38.1820  -68.9160   -7.0830 O         1 <0>         0.0000
   5572 WAT       -38.1820  -68.9160   -6.8330 O         1 <0>         0.0000
   5573 WAT       -38.1820  -68.9160   -6.5830 O         1 <0>         0.0000
   5574 WAT       -38.1820  -68.9160   -6.3330 O         1 <0>         0.0000
   5575 WAT       -38.1820  -68.9160   -6.0830 O         1 <0>         0.0000
   5576 WAT       -38.1820  -68.9160   -5.8330 O         1 <0>         0.0000
   5577 WAT       -38.1820  -68.9160   -5.5830 O         1 <0>         0.0000
   5578 WAT       -38.1820  -68.9160   -5.3330 O         1 <0>         0.0000
   5579 WAT       -38.1820  -68.9160   -5.0830 O         1 <0>         0.0000
   5580 WAT       -38.1820  -68.9160   -4.8330 O         1 <0>         0.0000
   5581 WAT       -38.1820  -68.9160   -4.5830 O         1 <0>         0.0000
   5582 WAT       -38.1820  -68.9160   -4.3330 O         1 <0>         0.0000
   5583 WAT       -38.1820  -68.9160   -4.0830 O         1 <0>         0.0000
   5584 WAT       -38.1820  -68.9160   -3.8330 O         1 <0>         0.0000
   5585 WAT       -38.1820  -68.9160   -3.5830 O         1 <0>         0.0000
   5586 WAT       -38.1820  -68.9160   -3.3330 O         1 <0>         0.0000
   5587 WAT       -38.1820  -68.9160   -3.0830 O         1 <0>         0.0000
   5588 WAT       -38.1820  -68.9160   -2.8330 O         1 <0>         0.0000
   5589 WAT       -38.1820  -68.9160   -2.5830 O         1 <0>         0.0000
   5590 WAT       -38.1820  -68.9160   -2.3330 O         1 <0>         0.0000
   5591 WAT       -38.1820  -68.9160   -2.0830 O         1 <0>         0.0000
   5592 WAT       -38.1820  -68.9160   -1.8330 O         1 <0>         0.0000
   5593 WAT       -38.1820  -68.9160   -1.5830 O         1 <0>         0.0000
   5594 WAT       -38.1820  -68.9160   -1.3330 O         1 <0>         0.0000
   5595 WAT       -38.1820  -68.9160   -1.0830 O         1 <0>         0.0000
   5596 WAT       -38.1820  -68.9160   -0.8330 O         1 <0>         0.0000
   5597 WAT       -38.1820  -68.9160   -0.5830 O         1 <0>         0.0000
   5598 WAT       -38.1820  -68.9160   -0.3330 O         1 <0>         0.0000
   5599 WAT       -38.1820  -68.9160   -0.0830 O         1 <0>         0.0000
   5600 WAT       -37.9320  -77.4160   -9.8330 O         1 <0>         0.0000
   5601 WAT       -37.9320  -77.4160   -9.5830 O         1 <0>         0.0000
   5602 WAT       -37.9320  -77.4160   -9.3330 O         1 <0>         0.0000
   5603 WAT       -37.9320  -77.4160   -9.0830 O         1 <0>         0.0000
   5604 WAT       -37.9320  -77.4160   -8.8330 O         1 <0>         0.0000
   5605 WAT       -37.9320  -77.4160   -8.5830 O         1 <0>         0.0000
   5606 WAT       -37.9320  -77.4160   -8.3330 O         1 <0>         0.0000
   5607 WAT       -37.9320  -77.4160   -8.0830 O         1 <0>         0.0000
   5608 WAT       -37.9320  -77.4160   -7.8330 O         1 <0>         0.0000
   5609 WAT       -37.9320  -77.4160   -7.5830 O         1 <0>         0.0000
   5610 WAT       -37.9320  -77.4160   -7.3330 O         1 <0>         0.0000
   5611 WAT       -37.9320  -77.4160   -7.0830 O         1 <0>         0.0000
   5612 WAT       -37.9320  -77.4160   -6.8330 O         1 <0>         0.0000
   5613 WAT       -37.9320  -77.4160   -6.5830 O         1 <0>         0.0000
   5614 WAT       -37.9320  -77.4160   -6.3330 O         1 <0>         0.0000
   5615 WAT       -37.9320  -77.4160   -6.0830 O         1 <0>         0.0000
   5616 WAT       -37.9320  -77.4160   -5.8330 O         1 <0>         0.0000
   5617 WAT       -37.9320  -77.4160   -5.5830 O         1 <0>         0.0000
   5618 WAT       -37.9320  -77.4160   -5.3330 O         1 <0>         0.0000
   5619 WAT       -37.9320  -77.4160   -5.0830 O         1 <0>         0.0000
   5620 WAT       -37.9320  -77.4160   -4.8330 O         1 <0>         0.0000
   5621 WAT       -37.9320  -77.4160   -4.5830 O         1 <0>         0.0000
   5622 WAT       -37.9320  -77.4160   -4.3330 O         1 <0>         0.0000
   5623 WAT       -37.9320  -77.4160   -4.0830 O         1 <0>         0.0000
   5624 WAT       -37.9320  -77.4160   -3.8330 O         1 <0>         0.0000
   5625 WAT       -37.9320  -77.4160   -3.5830 O         1 <0>         0.0000
   5626 WAT       -37.9320  -77.4160   -3.3330 O         1 <0>         0.0000
   5627 WAT       -37.9320  -77.4160   -3.0830 O         1 <0>         0.0000
   5628 WAT       -37.9320  -77.4160   -2.8330 O         1 <0>         0.0000
   5629 WAT       -37.9320  -77.4160   -2.5830 O         1 <0>         0.0000
   5630 WAT       -37.9320  -77.4160   -2.3330 O         1 <0>         0.0000
   5631 WAT       -37.9320  -77.4160   -2.0830 O         1 <0>         0.0000
   5632 WAT       -37.9320  -77.4160   -1.8330 O         1 <0>         0.0000
   5633 WAT       -37.9320  -77.4160   -1.5830 O         1 <0>         0.0000
   5634 WAT       -37.9320  -77.4160   -1.3330 O         1 <0>         0.0000
   5635 WAT       -37.9320  -77.4160   -1.0830 O         1 <0>         0.0000
   5636 WAT       -37.9320  -77.4160   -0.8330 O         1 <0>         0.0000
   5637 WAT       -37.9320  -77.4160   -0.5830 O         1 <0>         0.0000
   5638 WAT       -37.9320  -77.4160   -0.3330 O         1 <0>         0.0000
   5639 WAT       -37.9320  -77.4160   -0.0830 O         1 <0>         0.0000
   5640 WAT       -37.9320  -77.1660   -9.8330 O         1 <0>         0.0000
   5641 WAT       -37.9320  -77.1660   -9.5830 O         1 <0>         0.0000
   5642 WAT       -37.9320  -77.1660   -9.3330 O         1 <0>         0.0000
   5643 WAT       -37.9320  -77.1660   -9.0830 O         1 <0>         0.0000
   5644 WAT       -37.9320  -77.1660   -8.8330 O         1 <0>         0.0000
   5645 WAT       -37.9320  -77.1660   -8.5830 O         1 <0>         0.0000
   5646 WAT       -37.9320  -77.1660   -8.3330 O         1 <0>         0.0000
   5647 WAT       -37.9320  -77.1660   -8.0830 O         1 <0>         0.0000
   5648 WAT       -37.9320  -77.1660   -7.8330 O         1 <0>         0.0000
   5649 WAT       -37.9320  -77.1660   -7.5830 O         1 <0>         0.0000
   5650 WAT       -37.9320  -77.1660   -7.3330 O         1 <0>         0.0000
   5651 WAT       -37.9320  -77.1660   -7.0830 O         1 <0>         0.0000
   5652 WAT       -37.9320  -77.1660   -6.8330 O         1 <0>         0.0000
   5653 WAT       -37.9320  -77.1660   -6.5830 O         1 <0>         0.0000
   5654 WAT       -37.9320  -77.1660   -6.3330 O         1 <0>         0.0000
   5655 WAT       -37.9320  -77.1660   -6.0830 O         1 <0>         0.0000
   5656 WAT       -37.9320  -77.1660   -5.8330 O         1 <0>         0.0000
   5657 WAT       -37.9320  -77.1660   -5.5830 O         1 <0>         0.0000
   5658 WAT       -37.9320  -77.1660   -5.3330 O         1 <0>         0.0000
   5659 WAT       -37.9320  -77.1660   -5.0830 O         1 <0>         0.0000
   5660 WAT       -37.9320  -77.1660   -4.8330 O         1 <0>         0.0000
   5661 WAT       -37.9320  -77.1660   -4.5830 O         1 <0>         0.0000
   5662 WAT       -37.9320  -77.1660   -4.3330 O         1 <0>         0.0000
   5663 WAT       -37.9320  -77.1660   -4.0830 O         1 <0>         0.0000
   5664 WAT       -37.9320  -77.1660   -3.8330 O         1 <0>         0.0000
   5665 WAT       -37.9320  -77.1660   -3.5830 O         1 <0>         0.0000
   5666 WAT       -37.9320  -77.1660   -3.3330 O         1 <0>         0.0000
   5667 WAT       -37.9320  -77.1660   -3.0830 O         1 <0>         0.0000
   5668 WAT       -37.9320  -77.1660   -2.8330 O         1 <0>         0.0000
   5669 WAT       -37.9320  -77.1660   -2.5830 O         1 <0>         0.0000
   5670 WAT       -37.9320  -77.1660   -2.3330 O         1 <0>         0.0000
   5671 WAT       -37.9320  -77.1660   -2.0830 O         1 <0>         0.0000
   5672 WAT       -37.9320  -77.1660   -1.8330 O         1 <0>         0.0000
   5673 WAT       -37.9320  -77.1660   -1.5830 O         1 <0>         0.0000
   5674 WAT       -37.9320  -77.1660   -1.3330 O         1 <0>         0.0000
   5675 WAT       -37.9320  -77.1660   -1.0830 O         1 <0>         0.0000
   5676 WAT       -37.9320  -77.1660   -0.8330 O         1 <0>         0.0000
   5677 WAT       -37.9320  -77.1660   -0.5830 O         1 <0>         0.0000
   5678 WAT       -37.9320  -77.1660   -0.3330 O         1 <0>         0.0000
   5679 WAT       -37.9320  -77.1660   -0.0830 O         1 <0>         0.0000
   5680 WAT       -37.9320  -76.9160   -9.8330 O         1 <0>         0.0000
   5681 WAT       -37.9320  -76.9160   -9.5830 O         1 <0>         0.0000
   5682 WAT       -37.9320  -76.9160   -9.3330 O         1 <0>         0.0000
   5683 WAT       -37.9320  -76.9160   -9.0830 O         1 <0>         0.0000
   5684 WAT       -37.9320  -76.9160   -8.8330 O         1 <0>         0.0000
   5685 WAT       -37.9320  -76.9160   -8.5830 O         1 <0>         0.0000
   5686 WAT       -37.9320  -76.9160   -8.3330 O         1 <0>         0.0000
   5687 WAT       -37.9320  -76.9160   -8.0830 O         1 <0>         0.0000
   5688 WAT       -37.9320  -76.9160   -7.8330 O         1 <0>         0.0000
   5689 WAT       -37.9320  -76.9160   -7.5830 O         1 <0>         0.0000
   5690 WAT       -37.9320  -76.9160   -7.3330 O         1 <0>         0.0000
   5691 WAT       -37.9320  -76.9160   -7.0830 O         1 <0>         0.0000
   5692 WAT       -37.9320  -76.9160   -6.8330 O         1 <0>         0.0000
   5693 WAT       -37.9320  -76.9160   -6.5830 O         1 <0>         0.0000
   5694 WAT       -37.9320  -76.9160   -6.3330 O         1 <0>         0.0000
   5695 WAT       -37.9320  -76.9160   -6.0830 O         1 <0>         0.0000
   5696 WAT       -37.9320  -76.9160   -5.8330 O         1 <0>         0.0000
   5697 WAT       -37.9320  -76.9160   -5.5830 O         1 <0>         0.0000
   5698 WAT       -37.9320  -76.9160   -5.3330 O         1 <0>         0.0000
   5699 WAT       -37.9320  -76.9160   -5.0830 O         1 <0>         0.0000
   5700 WAT       -37.9320  -76.9160   -4.8330 O         1 <0>         0.0000
   5701 WAT       -37.9320  -76.9160   -4.5830 O         1 <0>         0.0000
   5702 WAT       -37.9320  -76.9160   -4.3330 O         1 <0>         0.0000
   5703 WAT       -37.9320  -76.9160   -4.0830 O         1 <0>         0.0000
   5704 WAT       -37.9320  -76.9160   -3.8330 O         1 <0>         0.0000
   5705 WAT       -37.9320  -76.9160   -3.5830 O         1 <0>         0.0000
   5706 WAT       -37.9320  -76.9160   -3.3330 O         1 <0>         0.0000
   5707 WAT       -37.9320  -76.9160   -3.0830 O         1 <0>         0.0000
   5708 WAT       -37.9320  -76.9160   -2.8330 O         1 <0>         0.0000
   5709 WAT       -37.9320  -76.9160   -2.5830 O         1 <0>         0.0000
   5710 WAT       -37.9320  -76.9160   -2.3330 O         1 <0>         0.0000
   5711 WAT       -37.9320  -76.9160   -2.0830 O         1 <0>         0.0000
   5712 WAT       -37.9320  -76.9160   -1.8330 O         1 <0>         0.0000
   5713 WAT       -37.9320  -76.9160   -1.5830 O         1 <0>         0.0000
   5714 WAT       -37.9320  -76.9160   -1.3330 O         1 <0>         0.0000
   5715 WAT       -37.9320  -76.9160   -1.0830 O         1 <0>         0.0000
   5716 WAT       -37.9320  -76.9160   -0.8330 O         1 <0>         0.0000
   5717 WAT       -37.9320  -76.9160   -0.5830 O         1 <0>         0.0000
   5718 WAT       -37.9320  -76.9160   -0.3330 O         1 <0>         0.0000
   5719 WAT       -37.9320  -76.9160   -0.0830 O         1 <0>         0.0000
   5720 WAT       -37.9320  -76.6660   -9.8330 O         1 <0>         0.0000
   5721 WAT       -37.9320  -76.6660   -9.5830 O         1 <0>         0.0000
   5722 WAT       -37.9320  -76.6660   -9.3330 O         1 <0>         0.0000
   5723 WAT       -37.9320  -76.6660   -9.0830 O         1 <0>         0.0000
   5724 WAT       -37.9320  -76.6660   -8.8330 O         1 <0>         0.0000
   5725 WAT       -37.9320  -76.6660   -8.5830 O         1 <0>         0.0000
   5726 WAT       -37.9320  -76.6660   -8.3330 O         1 <0>         0.0000
   5727 WAT       -37.9320  -76.6660   -8.0830 O         1 <0>         0.0000
   5728 WAT       -37.9320  -76.6660   -7.8330 O         1 <0>         0.0000
   5729 WAT       -37.9320  -76.6660   -7.5830 O         1 <0>         0.0000
   5730 WAT       -37.9320  -76.6660   -7.3330 O         1 <0>         0.0000
   5731 WAT       -37.9320  -76.6660   -7.0830 O         1 <0>         0.0000
   5732 WAT       -37.9320  -76.6660   -6.8330 O         1 <0>         0.0000
   5733 WAT       -37.9320  -76.6660   -6.5830 O         1 <0>         0.0000
   5734 WAT       -37.9320  -76.6660   -6.3330 O         1 <0>         0.0000
   5735 WAT       -37.9320  -76.6660   -6.0830 O         1 <0>         0.0000
   5736 WAT       -37.9320  -76.6660   -5.8330 O         1 <0>         0.0000
   5737 WAT       -37.9320  -76.6660   -5.5830 O         1 <0>         0.0000
   5738 WAT       -37.9320  -76.6660   -5.3330 O         1 <0>         0.0000
   5739 WAT       -37.9320  -76.6660   -5.0830 O         1 <0>         0.0000
   5740 WAT       -37.9320  -76.6660   -4.8330 O         1 <0>         0.0000
   5741 WAT       -37.9320  -76.6660   -4.5830 O         1 <0>         0.0000
   5742 WAT       -37.9320  -76.6660   -4.3330 O         1 <0>         0.0000
   5743 WAT       -37.9320  -76.6660   -4.0830 O         1 <0>         0.0000
   5744 WAT       -37.9320  -76.6660   -3.8330 O         1 <0>         0.0000
   5745 WAT       -37.9320  -76.6660   -3.5830 O         1 <0>         0.0000
   5746 WAT       -37.9320  -76.6660   -3.3330 O         1 <0>         0.0000
   5747 WAT       -37.9320  -76.6660   -3.0830 O         1 <0>         0.0000
   5748 WAT       -37.9320  -76.6660   -2.8330 O         1 <0>         0.0000
   5749 WAT       -37.9320  -76.6660   -2.5830 O         1 <0>         0.0000
   5750 WAT       -37.9320  -76.6660   -2.3330 O         1 <0>         0.0000
   5751 WAT       -37.9320  -76.6660   -2.0830 O         1 <0>         0.0000
   5752 WAT       -37.9320  -76.6660   -1.8330 O         1 <0>         0.0000
   5753 WAT       -37.9320  -76.6660   -1.5830 O         1 <0>         0.0000
   5754 WAT       -37.9320  -76.6660   -1.3330 O         1 <0>         0.0000
   5755 WAT       -37.9320  -76.6660   -1.0830 O         1 <0>         0.0000
   5756 WAT       -37.9320  -76.6660   -0.8330 O         1 <0>         0.0000
   5757 WAT       -37.9320  -76.6660   -0.5830 O         1 <0>         0.0000
   5758 WAT       -37.9320  -76.6660   -0.3330 O         1 <0>         0.0000
   5759 WAT       -37.9320  -76.6660   -0.0830 O         1 <0>         0.0000
   5760 WAT       -37.9320  -76.4160   -9.8330 O         1 <0>         0.0000
   5761 WAT       -37.9320  -76.4160   -9.5830 O         1 <0>         0.0000
   5762 WAT       -37.9320  -76.4160   -9.3330 O         1 <0>         0.0000
   5763 WAT       -37.9320  -76.4160   -9.0830 O         1 <0>         0.0000
   5764 WAT       -37.9320  -76.4160   -8.8330 O         1 <0>         0.0000
   5765 WAT       -37.9320  -76.4160   -8.5830 O         1 <0>         0.0000
   5766 WAT       -37.9320  -76.4160   -8.3330 O         1 <0>         0.0000
   5767 WAT       -37.9320  -76.4160   -8.0830 O         1 <0>         0.0000
   5768 WAT       -37.9320  -76.4160   -7.8330 O         1 <0>         0.0000
   5769 WAT       -37.9320  -76.4160   -7.5830 O         1 <0>         0.0000
   5770 WAT       -37.9320  -76.4160   -7.3330 O         1 <0>         0.0000
   5771 WAT       -37.9320  -76.4160   -7.0830 O         1 <0>         0.0000
   5772 WAT       -37.9320  -76.4160   -6.8330 O         1 <0>         0.0000
   5773 WAT       -37.9320  -76.4160   -6.5830 O         1 <0>         0.0000
   5774 WAT       -37.9320  -76.4160   -6.3330 O         1 <0>         0.0000
   5775 WAT       -37.9320  -76.4160   -6.0830 O         1 <0>         0.0000
   5776 WAT       -37.9320  -76.4160   -5.8330 O         1 <0>         0.0000
   5777 WAT       -37.9320  -76.4160   -5.5830 O         1 <0>         0.0000
   5778 WAT       -37.9320  -76.4160   -5.3330 O         1 <0>         0.0000
   5779 WAT       -37.9320  -76.4160   -5.0830 O         1 <0>         0.0000
   5780 WAT       -37.9320  -76.4160   -4.8330 O         1 <0>         0.0000
   5781 WAT       -37.9320  -76.4160   -4.5830 O         1 <0>         0.0000
   5782 WAT       -37.9320  -76.4160   -4.3330 O         1 <0>         0.0000
   5783 WAT       -37.9320  -76.4160   -4.0830 O         1 <0>         0.0000
   5784 WAT       -37.9320  -76.4160   -3.8330 O         1 <0>         0.0000
   5785 WAT       -37.9320  -76.4160   -3.5830 O         1 <0>         0.0000
   5786 WAT       -37.9320  -76.4160   -3.3330 O         1 <0>         0.0000
   5787 WAT       -37.9320  -76.4160   -3.0830 O         1 <0>         0.0000
   5788 WAT       -37.9320  -76.4160   -2.8330 O         1 <0>         0.0000
   5789 WAT       -37.9320  -76.4160   -2.5830 O         1 <0>         0.0000
   5790 WAT       -37.9320  -76.4160   -2.3330 O         1 <0>         0.0000
   5791 WAT       -37.9320  -76.4160   -2.0830 O         1 <0>         0.0000
   5792 WAT       -37.9320  -76.4160   -1.8330 O         1 <0>         0.0000
   5793 WAT       -37.9320  -76.4160   -1.5830 O         1 <0>         0.0000
   5794 WAT       -37.9320  -76.4160   -1.3330 O         1 <0>         0.0000
   5795 WAT       -37.9320  -76.4160   -1.0830 O         1 <0>         0.0000
   5796 WAT       -37.9320  -76.4160   -0.8330 O         1 <0>         0.0000
   5797 WAT       -37.9320  -76.4160   -0.5830 O         1 <0>         0.0000
   5798 WAT       -37.9320  -76.4160   -0.3330 O         1 <0>         0.0000
   5799 WAT       -37.9320  -76.4160   -0.0830 O         1 <0>         0.0000
   5800 WAT       -37.9320  -76.1660   -9.8330 O         1 <0>         0.0000
   5801 WAT       -37.9320  -76.1660   -9.5830 O         1 <0>         0.0000
   5802 WAT       -37.9320  -76.1660   -9.3330 O         1 <0>         0.0000
   5803 WAT       -37.9320  -76.1660   -9.0830 O         1 <0>         0.0000
   5804 WAT       -37.9320  -76.1660   -8.8330 O         1 <0>         0.0000
   5805 WAT       -37.9320  -76.1660   -8.5830 O         1 <0>         0.0000
   5806 WAT       -37.9320  -76.1660   -8.3330 O         1 <0>         0.0000
   5807 WAT       -37.9320  -76.1660   -8.0830 O         1 <0>         0.0000
   5808 WAT       -37.9320  -76.1660   -7.8330 O         1 <0>         0.0000
   5809 WAT       -37.9320  -76.1660   -7.5830 O         1 <0>         0.0000
   5810 WAT       -37.9320  -76.1660   -7.3330 O         1 <0>         0.0000
   5811 WAT       -37.9320  -76.1660   -7.0830 O         1 <0>         0.0000
   5812 WAT       -37.9320  -76.1660   -6.8330 O         1 <0>         0.0000
   5813 WAT       -37.9320  -76.1660   -6.5830 O         1 <0>         0.0000
   5814 WAT       -37.9320  -76.1660   -6.3330 O         1 <0>         0.0000
   5815 WAT       -37.9320  -76.1660   -6.0830 O         1 <0>         0.0000
   5816 WAT       -37.9320  -76.1660   -5.8330 O         1 <0>         0.0000
   5817 WAT       -37.9320  -76.1660   -5.5830 O         1 <0>         0.0000
   5818 WAT       -37.9320  -76.1660   -5.3330 O         1 <0>         0.0000
   5819 WAT       -37.9320  -76.1660   -5.0830 O         1 <0>         0.0000
   5820 WAT       -37.9320  -76.1660   -4.8330 O         1 <0>         0.0000
   5821 WAT       -37.9320  -76.1660   -4.5830 O         1 <0>         0.0000
   5822 WAT       -37.9320  -76.1660   -4.3330 O         1 <0>         0.0000
   5823 WAT       -37.9320  -76.1660   -4.0830 O         1 <0>         0.0000
   5824 WAT       -37.9320  -76.1660   -3.8330 O         1 <0>         0.0000
   5825 WAT       -37.9320  -76.1660   -3.5830 O         1 <0>         0.0000
   5826 WAT       -37.9320  -76.1660   -3.3330 O         1 <0>         0.0000
   5827 WAT       -37.9320  -76.1660   -3.0830 O         1 <0>         0.0000
   5828 WAT       -37.9320  -76.1660   -2.8330 O         1 <0>         0.0000
   5829 WAT       -37.9320  -76.1660   -2.5830 O         1 <0>         0.0000
   5830 WAT       -37.9320  -76.1660   -2.3330 O         1 <0>         0.0000
   5831 WAT       -37.9320  -76.1660   -2.0830 O         1 <0>         0.0000
   5832 WAT       -37.9320  -76.1660   -1.8330 O         1 <0>         0.0000
   5833 WAT       -37.9320  -76.1660   -1.5830 O         1 <0>         0.0000
   5834 WAT       -37.9320  -76.1660   -1.3330 O         1 <0>         0.0000
   5835 WAT       -37.9320  -76.1660   -1.0830 O         1 <0>         0.0000
   5836 WAT       -37.9320  -76.1660   -0.8330 O         1 <0>         0.0000
   5837 WAT       -37.9320  -76.1660   -0.5830 O         1 <0>         0.0000
   5838 WAT       -37.9320  -76.1660   -0.3330 O         1 <0>         0.0000
   5839 WAT       -37.9320  -76.1660   -0.0830 O         1 <0>         0.0000
   5840 WAT       -37.9320  -75.9160   -9.8330 O         1 <0>         0.0000
   5841 WAT       -37.9320  -75.9160   -9.5830 O         1 <0>         0.0000
   5842 WAT       -37.9320  -75.9160   -9.3330 O         1 <0>         0.0000
   5843 WAT       -37.9320  -75.9160   -9.0830 O         1 <0>         0.0000
   5844 WAT       -37.9320  -75.9160   -8.8330 O         1 <0>         0.0000
   5845 WAT       -37.9320  -75.9160   -8.5830 O         1 <0>         0.0000
   5846 WAT       -37.9320  -75.9160   -8.3330 O         1 <0>         0.0000
   5847 WAT       -37.9320  -75.9160   -8.0830 O         1 <0>         0.0000
   5848 WAT       -37.9320  -75.9160   -7.8330 O         1 <0>         0.0000
   5849 WAT       -37.9320  -75.9160   -7.5830 O         1 <0>         0.0000
   5850 WAT       -37.9320  -75.9160   -7.3330 O         1 <0>         0.0000
   5851 WAT       -37.9320  -75.9160   -7.0830 O         1 <0>         0.0000
   5852 WAT       -37.9320  -75.9160   -6.8330 O         1 <0>         0.0000
   5853 WAT       -37.9320  -75.9160   -6.5830 O         1 <0>         0.0000
   5854 WAT       -37.9320  -75.9160   -6.3330 O         1 <0>         0.0000
   5855 WAT       -37.9320  -75.9160   -6.0830 O         1 <0>         0.0000
   5856 WAT       -37.9320  -75.9160   -5.8330 O         1 <0>         0.0000
   5857 WAT       -37.9320  -75.9160   -5.5830 O         1 <0>         0.0000
   5858 WAT       -37.9320  -75.9160   -5.3330 O         1 <0>         0.0000
   5859 WAT       -37.9320  -75.9160   -5.0830 O         1 <0>         0.0000
   5860 WAT       -37.9320  -75.9160   -4.8330 O         1 <0>         0.0000
   5861 WAT       -37.9320  -75.9160   -4.5830 O         1 <0>         0.0000
   5862 WAT       -37.9320  -75.9160   -4.3330 O         1 <0>         0.0000
   5863 WAT       -37.9320  -75.9160   -4.0830 O         1 <0>         0.0000
   5864 WAT       -37.9320  -75.9160   -3.8330 O         1 <0>         0.0000
   5865 WAT       -37.9320  -75.9160   -3.5830 O         1 <0>         0.0000
   5866 WAT       -37.9320  -75.9160   -3.3330 O         1 <0>         0.0000
   5867 WAT       -37.9320  -75.9160   -3.0830 O         1 <0>         0.0000
   5868 WAT       -37.9320  -75.9160   -2.8330 O         1 <0>         0.0000
   5869 WAT       -37.9320  -75.9160   -2.5830 O         1 <0>         0.0000
   5870 WAT       -37.9320  -75.9160   -2.3330 O         1 <0>         0.0000
   5871 WAT       -37.9320  -75.9160   -2.0830 O         1 <0>         0.0000
   5872 WAT       -37.9320  -75.9160   -1.8330 O         1 <0>         0.0000
   5873 WAT       -37.9320  -75.9160   -1.5830 O         1 <0>         0.0000
   5874 WAT       -37.9320  -75.9160   -1.3330 O         1 <0>         0.0000
   5875 WAT       -37.9320  -75.9160   -1.0830 O         1 <0>         0.0000
   5876 WAT       -37.9320  -75.9160   -0.8330 O         1 <0>         0.0000
   5877 WAT       -37.9320  -75.9160   -0.5830 O         1 <0>         0.0000
   5878 WAT       -37.9320  -75.9160   -0.3330 O         1 <0>         0.0000
   5879 WAT       -37.9320  -75.9160   -0.0830 O         1 <0>         0.0000
   5880 WAT       -37.9320  -75.6660   -9.8330 O         1 <0>         0.0000
   5881 WAT       -37.9320  -75.6660   -9.5830 O         1 <0>         0.0000
   5882 WAT       -37.9320  -75.6660   -9.3330 O         1 <0>         0.0000
   5883 WAT       -37.9320  -75.6660   -9.0830 O         1 <0>         0.0000
   5884 WAT       -37.9320  -75.6660   -8.8330 O         1 <0>         0.0000
   5885 WAT       -37.9320  -75.6660   -8.5830 O         1 <0>         0.0000
   5886 WAT       -37.9320  -75.6660   -8.3330 O         1 <0>         0.0000
   5887 WAT       -37.9320  -75.6660   -8.0830 O         1 <0>         0.0000
   5888 WAT       -37.9320  -75.6660   -7.8330 O         1 <0>         0.0000
   5889 WAT       -37.9320  -75.6660   -7.5830 O         1 <0>         0.0000
   5890 WAT       -37.9320  -75.6660   -7.3330 O         1 <0>         0.0000
   5891 WAT       -37.9320  -75.6660   -7.0830 O         1 <0>         0.0000
   5892 WAT       -37.9320  -75.6660   -6.8330 O         1 <0>         0.0000
   5893 WAT       -37.9320  -75.6660   -6.5830 O         1 <0>         0.0000
   5894 WAT       -37.9320  -75.6660   -6.3330 O         1 <0>         0.0000
   5895 WAT       -37.9320  -75.6660   -6.0830 O         1 <0>         0.0000
   5896 WAT       -37.9320  -75.6660   -5.8330 O         1 <0>         0.0000
   5897 WAT       -37.9320  -75.6660   -5.5830 O         1 <0>         0.0000
   5898 WAT       -37.9320  -75.6660   -5.3330 O         1 <0>         0.0000
   5899 WAT       -37.9320  -75.6660   -5.0830 O         1 <0>         0.0000
   5900 WAT       -37.9320  -75.6660   -4.8330 O         1 <0>         0.0000
   5901 WAT       -37.9320  -75.6660   -4.5830 O         1 <0>         0.0000
   5902 WAT       -37.9320  -75.6660   -4.3330 O         1 <0>         0.0000
   5903 WAT       -37.9320  -75.6660   -4.0830 O         1 <0>         0.0000
   5904 WAT       -37.9320  -75.6660   -3.8330 O         1 <0>         0.0000
   5905 WAT       -37.9320  -75.6660   -3.5830 O         1 <0>         0.0000
   5906 WAT       -37.9320  -75.6660   -3.3330 O         1 <0>         0.0000
   5907 WAT       -37.9320  -75.6660   -3.0830 O         1 <0>         0.0000
   5908 WAT       -37.9320  -75.6660   -2.8330 O         1 <0>         0.0000
   5909 WAT       -37.9320  -75.6660   -2.5830 O         1 <0>         0.0000
   5910 WAT       -37.9320  -75.6660   -2.3330 O         1 <0>         0.0000
   5911 WAT       -37.9320  -75.6660   -2.0830 O         1 <0>         0.0000
   5912 WAT       -37.9320  -75.6660   -1.8330 O         1 <0>         0.0000
   5913 WAT       -37.9320  -75.6660   -1.5830 O         1 <0>         0.0000
   5914 WAT       -37.9320  -75.6660   -1.3330 O         1 <0>         0.0000
   5915 WAT       -37.9320  -75.6660   -1.0830 O         1 <0>         0.0000
   5916 WAT       -37.9320  -75.6660   -0.8330 O         1 <0>         0.0000
   5917 WAT       -37.9320  -75.6660   -0.5830 O         1 <0>         0.0000
   5918 WAT       -37.9320  -75.6660   -0.3330 O         1 <0>         0.0000
   5919 WAT       -37.9320  -75.6660   -0.0830 O         1 <0>         0.0000
   5920 WAT       -37.9320  -75.4160   -9.8330 O         1 <0>         0.0000
   5921 WAT       -37.9320  -75.4160   -9.5830 O         1 <0>         0.0000
   5922 WAT       -37.9320  -75.4160   -9.3330 O         1 <0>         0.0000
   5923 WAT       -37.9320  -75.4160   -9.0830 O         1 <0>         0.0000
   5924 WAT       -37.9320  -75.4160   -8.8330 O         1 <0>         0.0000
   5925 WAT       -37.9320  -75.4160   -8.5830 O         1 <0>         0.0000
   5926 WAT       -37.9320  -75.4160   -8.3330 O         1 <0>         0.0000
   5927 WAT       -37.9320  -75.4160   -8.0830 O         1 <0>         0.0000
   5928 WAT       -37.9320  -75.4160   -7.8330 O         1 <0>         0.0000
   5929 WAT       -37.9320  -75.4160   -7.5830 O         1 <0>         0.0000
   5930 WAT       -37.9320  -75.4160   -7.3330 O         1 <0>         0.0000
   5931 WAT       -37.9320  -75.4160   -7.0830 O         1 <0>         0.0000
   5932 WAT       -37.9320  -75.4160   -6.8330 O         1 <0>         0.0000
   5933 WAT       -37.9320  -75.4160   -6.5830 O         1 <0>         0.0000
   5934 WAT       -37.9320  -75.4160   -6.3330 O         1 <0>         0.0000
   5935 WAT       -37.9320  -75.4160   -6.0830 O         1 <0>         0.0000
   5936 WAT       -37.9320  -75.4160   -5.8330 O         1 <0>         0.0000
   5937 WAT       -37.9320  -75.4160   -5.5830 O         1 <0>         0.0000
   5938 WAT       -37.9320  -75.4160   -5.3330 O         1 <0>         0.0000
   5939 WAT       -37.9320  -75.4160   -5.0830 O         1 <0>         0.0000
   5940 WAT       -37.9320  -75.4160   -4.8330 O         1 <0>         0.0000
   5941 WAT       -37.9320  -75.4160   -4.5830 O         1 <0>         0.0000
   5942 WAT       -37.9320  -75.4160   -4.3330 O         1 <0>         0.0000
   5943 WAT       -37.9320  -75.4160   -4.0830 O         1 <0>         0.0000
   5944 WAT       -37.9320  -75.4160   -3.8330 O         1 <0>         0.0000
   5945 WAT       -37.9320  -75.4160   -3.5830 O         1 <0>         0.0000
   5946 WAT       -37.9320  -75.4160   -3.3330 O         1 <0>         0.0000
   5947 WAT       -37.9320  -75.4160   -3.0830 O         1 <0>         0.0000
   5948 WAT       -37.9320  -75.4160   -2.8330 O         1 <0>         0.0000
   5949 WAT       -37.9320  -75.4160   -2.5830 O         1 <0>         0.0000
   5950 WAT       -37.9320  -75.4160   -2.3330 O         1 <0>         0.0000
   5951 WAT       -37.9320  -75.4160   -2.0830 O         1 <0>         0.0000
   5952 WAT       -37.9320  -75.4160   -1.8330 O         1 <0>         0.0000
   5953 WAT       -37.9320  -75.4160   -1.5830 O         1 <0>         0.0000
   5954 WAT       -37.9320  -75.4160   -1.3330 O         1 <0>         0.0000
   5955 WAT       -37.9320  -75.4160   -1.0830 O         1 <0>         0.0000
   5956 WAT       -37.9320  -75.4160   -0.8330 O         1 <0>         0.0000
   5957 WAT       -37.9320  -75.4160   -0.5830 O         1 <0>         0.0000
   5958 WAT       -37.9320  -75.4160   -0.3330 O         1 <0>         0.0000
   5959 WAT       -37.9320  -75.4160   -0.0830 O         1 <0>         0.0000
   5960 WAT       -37.9320  -75.1660   -9.8330 O         1 <0>         0.0000
   5961 WAT       -37.9320  -75.1660   -9.5830 O         1 <0>         0.0000
   5962 WAT       -37.9320  -75.1660   -9.3330 O         1 <0>         0.0000
   5963 WAT       -37.9320  -75.1660   -9.0830 O         1 <0>         0.0000
   5964 WAT       -37.9320  -75.1660   -8.8330 O         1 <0>         0.0000
   5965 WAT       -37.9320  -75.1660   -8.5830 O         1 <0>         0.0000
   5966 WAT       -37.9320  -75.1660   -8.3330 O         1 <0>         0.0000
   5967 WAT       -37.9320  -75.1660   -8.0830 O         1 <0>         0.0000
   5968 WAT       -37.9320  -75.1660   -7.8330 O         1 <0>         0.0000
   5969 WAT       -37.9320  -75.1660   -7.5830 O         1 <0>         0.0000
   5970 WAT       -37.9320  -75.1660   -7.3330 O         1 <0>         0.0000
   5971 WAT       -37.9320  -75.1660   -7.0830 O         1 <0>         0.0000
   5972 WAT       -37.9320  -75.1660   -6.8330 O         1 <0>         0.0000
   5973 WAT       -37.9320  -75.1660   -6.5830 O         1 <0>         0.0000
   5974 WAT       -37.9320  -75.1660   -6.3330 O         1 <0>         0.0000
   5975 WAT       -37.9320  -75.1660   -6.0830 O         1 <0>         0.0000
   5976 WAT       -37.9320  -75.1660   -5.8330 O         1 <0>         0.0000
   5977 WAT       -37.9320  -75.1660   -5.5830 O         1 <0>         0.0000
   5978 WAT       -37.9320  -75.1660   -5.3330 O         1 <0>         0.0000
   5979 WAT       -37.9320  -75.1660   -5.0830 O         1 <0>         0.0000
   5980 WAT       -37.9320  -75.1660   -4.8330 O         1 <0>         0.0000
   5981 WAT       -37.9320  -75.1660   -4.5830 O         1 <0>         0.0000
   5982 WAT       -37.9320  -75.1660   -4.3330 O         1 <0>         0.0000
   5983 WAT       -37.9320  -75.1660   -4.0830 O         1 <0>         0.0000
   5984 WAT       -37.9320  -75.1660   -3.8330 O         1 <0>         0.0000
   5985 WAT       -37.9320  -75.1660   -3.5830 O         1 <0>         0.0000
   5986 WAT       -37.9320  -75.1660   -3.3330 O         1 <0>         0.0000
   5987 WAT       -37.9320  -75.1660   -3.0830 O         1 <0>         0.0000
   5988 WAT       -37.9320  -75.1660   -2.8330 O         1 <0>         0.0000
   5989 WAT       -37.9320  -75.1660   -2.5830 O         1 <0>         0.0000
   5990 WAT       -37.9320  -75.1660   -2.3330 O         1 <0>         0.0000
   5991 WAT       -37.9320  -75.1660   -2.0830 O         1 <0>         0.0000
   5992 WAT       -37.9320  -75.1660   -1.8330 O         1 <0>         0.0000
   5993 WAT       -37.9320  -75.1660   -1.5830 O         1 <0>         0.0000
   5994 WAT       -37.9320  -75.1660   -1.3330 O         1 <0>         0.0000
   5995 WAT       -37.9320  -75.1660   -1.0830 O         1 <0>         0.0000
   5996 WAT       -37.9320  -75.1660   -0.8330 O         1 <0>         0.0000
   5997 WAT       -37.9320  -75.1660   -0.5830 O         1 <0>         0.0000
   5998 WAT       -37.9320  -75.1660   -0.3330 O         1 <0>         0.0000
   5999 WAT       -37.9320  -75.1660   -0.0830 O         1 <0>         0.0000
   6000 WAT       -37.9320  -74.9160   -9.8330 O         1 <0>         0.0000
   6001 WAT       -37.9320  -74.9160   -9.5830 O         1 <0>         0.0000
   6002 WAT       -37.9320  -74.9160   -9.3330 O         1 <0>         0.0000
   6003 WAT       -37.9320  -74.9160   -9.0830 O         1 <0>         0.0000
   6004 WAT       -37.9320  -74.9160   -8.8330 O         1 <0>         0.0000
   6005 WAT       -37.9320  -74.9160   -8.5830 O         1 <0>         0.0000
   6006 WAT       -37.9320  -74.9160   -8.3330 O         1 <0>         0.0000
   6007 WAT       -37.9320  -74.9160   -8.0830 O         1 <0>         0.0000
   6008 WAT       -37.9320  -74.9160   -7.8330 O         1 <0>         0.0000
   6009 WAT       -37.9320  -74.9160   -7.5830 O         1 <0>         0.0000
   6010 WAT       -37.9320  -74.9160   -7.3330 O         1 <0>         0.0000
   6011 WAT       -37.9320  -74.9160   -7.0830 O         1 <0>         0.0000
   6012 WAT       -37.9320  -74.9160   -6.8330 O         1 <0>         0.0000
   6013 WAT       -37.9320  -74.9160   -6.5830 O         1 <0>         0.0000
   6014 WAT       -37.9320  -74.9160   -6.3330 O         1 <0>         0.0000
   6015 WAT       -37.9320  -74.9160   -6.0830 O         1 <0>         0.0000
   6016 WAT       -37.9320  -74.9160   -5.8330 O         1 <0>         0.0000
   6017 WAT       -37.9320  -74.9160   -5.5830 O         1 <0>         0.0000
   6018 WAT       -37.9320  -74.9160   -5.3330 O         1 <0>         0.0000
   6019 WAT       -37.9320  -74.9160   -5.0830 O         1 <0>         0.0000
   6020 WAT       -37.9320  -74.9160   -4.8330 O         1 <0>         0.0000
   6021 WAT       -37.9320  -74.9160   -4.5830 O         1 <0>         0.0000
   6022 WAT       -37.9320  -74.9160   -4.3330 O         1 <0>         0.0000
   6023 WAT       -37.9320  -74.9160   -4.0830 O         1 <0>         0.0000
   6024 WAT       -37.9320  -74.9160   -3.8330 O         1 <0>         0.0000
   6025 WAT       -37.9320  -74.9160   -3.5830 O         1 <0>         0.0000
   6026 WAT       -37.9320  -74.9160   -3.3330 O         1 <0>         0.0000
   6027 WAT       -37.9320  -74.9160   -3.0830 O         1 <0>         0.0000
   6028 WAT       -37.9320  -74.9160   -2.8330 O         1 <0>         0.0000
   6029 WAT       -37.9320  -74.9160   -2.5830 O         1 <0>         0.0000
   6030 WAT       -37.9320  -74.9160   -2.3330 O         1 <0>         0.0000
   6031 WAT       -37.9320  -74.9160   -2.0830 O         1 <0>         0.0000
   6032 WAT       -37.9320  -74.9160   -1.8330 O         1 <0>         0.0000
   6033 WAT       -37.9320  -74.9160   -1.5830 O         1 <0>         0.0000
   6034 WAT       -37.9320  -74.9160   -1.3330 O         1 <0>         0.0000
   6035 WAT       -37.9320  -74.9160   -1.0830 O         1 <0>         0.0000
   6036 WAT       -37.9320  -74.9160   -0.8330 O         1 <0>         0.0000
   6037 WAT       -37.9320  -74.9160   -0.5830 O         1 <0>         0.0000
   6038 WAT       -37.9320  -74.9160   -0.3330 O         1 <0>         0.0000
   6039 WAT       -37.9320  -74.9160   -0.0830 O         1 <0>         0.0000
   6040 WAT       -37.9320  -74.6660   -9.8330 O         1 <0>         0.0000
   6041 WAT       -37.9320  -74.6660   -9.5830 O         1 <0>         0.0000
   6042 WAT       -37.9320  -74.6660   -9.3330 O         1 <0>         0.0000
   6043 WAT       -37.9320  -74.6660   -9.0830 O         1 <0>         0.0000
   6044 WAT       -37.9320  -74.6660   -8.8330 O         1 <0>         0.0000
   6045 WAT       -37.9320  -74.6660   -8.5830 O         1 <0>         0.0000
   6046 WAT       -37.9320  -74.6660   -8.3330 O         1 <0>         0.0000
   6047 WAT       -37.9320  -74.6660   -8.0830 O         1 <0>         0.0000
   6048 WAT       -37.9320  -74.6660   -7.8330 O         1 <0>         0.0000
   6049 WAT       -37.9320  -74.6660   -7.5830 O         1 <0>         0.0000
   6050 WAT       -37.9320  -74.6660   -7.3330 O         1 <0>         0.0000
   6051 WAT       -37.9320  -74.6660   -7.0830 O         1 <0>         0.0000
   6052 WAT       -37.9320  -74.6660   -6.8330 O         1 <0>         0.0000
   6053 WAT       -37.9320  -74.6660   -6.5830 O         1 <0>         0.0000
   6054 WAT       -37.9320  -74.6660   -6.3330 O         1 <0>         0.0000
   6055 WAT       -37.9320  -74.6660   -6.0830 O         1 <0>         0.0000
   6056 WAT       -37.9320  -74.6660   -5.8330 O         1 <0>         0.0000
   6057 WAT       -37.9320  -74.6660   -5.5830 O         1 <0>         0.0000
   6058 WAT       -37.9320  -74.6660   -5.3330 O         1 <0>         0.0000
   6059 WAT       -37.9320  -74.6660   -5.0830 O         1 <0>         0.0000
   6060 WAT       -37.9320  -74.6660   -4.8330 O         1 <0>         0.0000
   6061 WAT       -37.9320  -74.6660   -4.5830 O         1 <0>         0.0000
   6062 WAT       -37.9320  -74.6660   -4.3330 O         1 <0>         0.0000
   6063 WAT       -37.9320  -74.6660   -4.0830 O         1 <0>         0.0000
   6064 WAT       -37.9320  -74.6660   -3.8330 O         1 <0>         0.0000
   6065 WAT       -37.9320  -74.6660   -3.5830 O         1 <0>         0.0000
   6066 WAT       -37.9320  -74.6660   -3.3330 O         1 <0>         0.0000
   6067 WAT       -37.9320  -74.6660   -3.0830 O         1 <0>         0.0000
   6068 WAT       -37.9320  -74.6660   -2.8330 O         1 <0>         0.0000
   6069 WAT       -37.9320  -74.6660   -2.5830 O         1 <0>         0.0000
   6070 WAT       -37.9320  -74.6660   -2.3330 O         1 <0>         0.0000
   6071 WAT       -37.9320  -74.6660   -2.0830 O         1 <0>         0.0000
   6072 WAT       -37.9320  -74.6660   -1.8330 O         1 <0>         0.0000
   6073 WAT       -37.9320  -74.6660   -1.5830 O         1 <0>         0.0000
   6074 WAT       -37.9320  -74.6660   -1.3330 O         1 <0>         0.0000
   6075 WAT       -37.9320  -74.6660   -1.0830 O         1 <0>         0.0000
   6076 WAT       -37.9320  -74.6660   -0.8330 O         1 <0>         0.0000
   6077 WAT       -37.9320  -74.6660   -0.5830 O         1 <0>         0.0000
   6078 WAT       -37.9320  -74.6660   -0.3330 O         1 <0>         0.0000
   6079 WAT       -37.9320  -74.6660   -0.0830 O         1 <0>         0.0000
   6080 WAT       -37.9320  -74.4160   -9.8330 O         1 <0>         0.0000
   6081 WAT       -37.9320  -74.4160   -9.5830 O         1 <0>         0.0000
   6082 WAT       -37.9320  -74.4160   -9.3330 O         1 <0>         0.0000
   6083 WAT       -37.9320  -74.4160   -9.0830 O         1 <0>         0.0000
   6084 WAT       -37.9320  -74.4160   -8.8330 O         1 <0>         0.0000
   6085 WAT       -37.9320  -74.4160   -8.5830 O         1 <0>         0.0000
   6086 WAT       -37.9320  -74.4160   -8.3330 O         1 <0>         0.0000
   6087 WAT       -37.9320  -74.4160   -8.0830 O         1 <0>         0.0000
   6088 WAT       -37.9320  -74.4160   -7.8330 O         1 <0>         0.0000
   6089 WAT       -37.9320  -74.4160   -7.5830 O         1 <0>         0.0000
   6090 WAT       -37.9320  -74.4160   -7.3330 O         1 <0>         0.0000
   6091 WAT       -37.9320  -74.4160   -7.0830 O         1 <0>         0.0000
   6092 WAT       -37.9320  -74.4160   -6.8330 O         1 <0>         0.0000
   6093 WAT       -37.9320  -74.4160   -6.5830 O         1 <0>         0.0000
   6094 WAT       -37.9320  -74.4160   -6.3330 O         1 <0>         0.0000
   6095 WAT       -37.9320  -74.4160   -6.0830 O         1 <0>         0.0000
   6096 WAT       -37.9320  -74.4160   -5.8330 O         1 <0>         0.0000
   6097 WAT       -37.9320  -74.4160   -5.5830 O         1 <0>         0.0000
   6098 WAT       -37.9320  -74.4160   -5.3330 O         1 <0>         0.0000
   6099 WAT       -37.9320  -74.4160   -5.0830 O         1 <0>         0.0000
   6100 WAT       -37.9320  -74.4160   -4.8330 O         1 <0>         0.0000
   6101 WAT       -37.9320  -74.4160   -4.5830 O         1 <0>         0.0000
   6102 WAT       -37.9320  -74.4160   -4.3330 O         1 <0>         0.0000
   6103 WAT       -37.9320  -74.4160   -4.0830 O         1 <0>         0.0000
   6104 WAT       -37.9320  -74.4160   -3.8330 O         1 <0>         0.0000
   6105 WAT       -37.9320  -74.4160   -3.5830 O         1 <0>         0.0000
   6106 WAT       -37.9320  -74.4160   -3.3330 O         1 <0>         0.0000
   6107 WAT       -37.9320  -74.4160   -3.0830 O         1 <0>         0.0000
   6108 WAT       -37.9320  -74.4160   -2.8330 O         1 <0>         0.0000
   6109 WAT       -37.9320  -74.4160   -2.5830 O         1 <0>         0.0000
   6110 WAT       -37.9320  -74.4160   -2.3330 O         1 <0>         0.0000
   6111 WAT       -37.9320  -74.4160   -2.0830 O         1 <0>         0.0000
   6112 WAT       -37.9320  -74.4160   -1.8330 O         1 <0>         0.0000
   6113 WAT       -37.9320  -74.4160   -1.5830 O         1 <0>         0.0000
   6114 WAT       -37.9320  -74.4160   -1.3330 O         1 <0>         0.0000
   6115 WAT       -37.9320  -74.4160   -1.0830 O         1 <0>         0.0000
   6116 WAT       -37.9320  -74.4160   -0.8330 O         1 <0>         0.0000
   6117 WAT       -37.9320  -74.4160   -0.5830 O         1 <0>         0.0000
   6118 WAT       -37.9320  -74.4160   -0.3330 O         1 <0>         0.0000
   6119 WAT       -37.9320  -74.4160   -0.0830 O         1 <0>         0.0000
   6120 WAT       -37.9320  -74.1660   -9.8330 O         1 <0>         0.0000
   6121 WAT       -37.9320  -74.1660   -9.5830 O         1 <0>         0.0000
   6122 WAT       -37.9320  -74.1660   -9.3330 O         1 <0>         0.0000
   6123 WAT       -37.9320  -74.1660   -9.0830 O         1 <0>         0.0000
   6124 WAT       -37.9320  -74.1660   -8.8330 O         1 <0>         0.0000
   6125 WAT       -37.9320  -74.1660   -8.5830 O         1 <0>         0.0000
   6126 WAT       -37.9320  -74.1660   -8.3330 O         1 <0>         0.0000
   6127 WAT       -37.9320  -74.1660   -8.0830 O         1 <0>         0.0000
   6128 WAT       -37.9320  -74.1660   -7.8330 O         1 <0>         0.0000
   6129 WAT       -37.9320  -74.1660   -7.5830 O         1 <0>         0.0000
   6130 WAT       -37.9320  -74.1660   -7.3330 O         1 <0>         0.0000
   6131 WAT       -37.9320  -74.1660   -7.0830 O         1 <0>         0.0000
   6132 WAT       -37.9320  -74.1660   -6.8330 O         1 <0>         0.0000
   6133 WAT       -37.9320  -74.1660   -6.5830 O         1 <0>         0.0000
   6134 WAT       -37.9320  -74.1660   -6.3330 O         1 <0>         0.0000
   6135 WAT       -37.9320  -74.1660   -6.0830 O         1 <0>         0.0000
   6136 WAT       -37.9320  -74.1660   -5.8330 O         1 <0>         0.0000
   6137 WAT       -37.9320  -74.1660   -5.5830 O         1 <0>         0.0000
   6138 WAT       -37.9320  -74.1660   -5.3330 O         1 <0>         0.0000
   6139 WAT       -37.9320  -74.1660   -5.0830 O         1 <0>         0.0000
   6140 WAT       -37.9320  -74.1660   -4.8330 O         1 <0>         0.0000
   6141 WAT       -37.9320  -74.1660   -4.5830 O         1 <0>         0.0000
   6142 WAT       -37.9320  -74.1660   -4.3330 O         1 <0>         0.0000
   6143 WAT       -37.9320  -74.1660   -4.0830 O         1 <0>         0.0000
   6144 WAT       -37.9320  -74.1660   -3.8330 O         1 <0>         0.0000
   6145 WAT       -37.9320  -74.1660   -3.5830 O         1 <0>         0.0000
   6146 WAT       -37.9320  -74.1660   -3.3330 O         1 <0>         0.0000
   6147 WAT       -37.9320  -74.1660   -3.0830 O         1 <0>         0.0000
   6148 WAT       -37.9320  -74.1660   -2.8330 O         1 <0>         0.0000
   6149 WAT       -37.9320  -74.1660   -2.5830 O         1 <0>         0.0000
   6150 WAT       -37.9320  -74.1660   -2.3330 O         1 <0>         0.0000
   6151 WAT       -37.9320  -74.1660   -2.0830 O         1 <0>         0.0000
   6152 WAT       -37.9320  -74.1660   -1.8330 O         1 <0>         0.0000
   6153 WAT       -37.9320  -74.1660   -1.5830 O         1 <0>         0.0000
   6154 WAT       -37.9320  -74.1660   -1.3330 O         1 <0>         0.0000
   6155 WAT       -37.9320  -74.1660   -1.0830 O         1 <0>         0.0000
   6156 WAT       -37.9320  -74.1660   -0.8330 O         1 <0>         0.0000
   6157 WAT       -37.9320  -74.1660   -0.5830 O         1 <0>         0.0000
   6158 WAT       -37.9320  -74.1660   -0.3330 O         1 <0>         0.0000
   6159 WAT       -37.9320  -74.1660   -0.0830 O         1 <0>         0.0000
   6160 WAT       -37.9320  -73.9160   -9.8330 O         1 <0>         0.0000
   6161 WAT       -37.9320  -73.9160   -9.5830 O         1 <0>         0.0000
   6162 WAT       -37.9320  -73.9160   -9.3330 O         1 <0>         0.0000
   6163 WAT       -37.9320  -73.9160   -9.0830 O         1 <0>         0.0000
   6164 WAT       -37.9320  -73.9160   -8.8330 O         1 <0>         0.0000
   6165 WAT       -37.9320  -73.9160   -8.5830 O         1 <0>         0.0000
   6166 WAT       -37.9320  -73.9160   -8.3330 O         1 <0>         0.0000
   6167 WAT       -37.9320  -73.9160   -8.0830 O         1 <0>         0.0000
   6168 WAT       -37.9320  -73.9160   -7.8330 O         1 <0>         0.0000
   6169 WAT       -37.9320  -73.9160   -7.5830 O         1 <0>         0.0000
   6170 WAT       -37.9320  -73.9160   -7.3330 O         1 <0>         0.0000
   6171 WAT       -37.9320  -73.9160   -7.0830 O         1 <0>         0.0000
   6172 WAT       -37.9320  -73.9160   -6.8330 O         1 <0>         0.0000
   6173 WAT       -37.9320  -73.9160   -6.5830 O         1 <0>         0.0000
   6174 WAT       -37.9320  -73.9160   -6.3330 O         1 <0>         0.0000
   6175 WAT       -37.9320  -73.9160   -6.0830 O         1 <0>         0.0000
   6176 WAT       -37.9320  -73.9160   -5.8330 O         1 <0>         0.0000
   6177 WAT       -37.9320  -73.9160   -5.5830 O         1 <0>         0.0000
   6178 WAT       -37.9320  -73.9160   -5.3330 O         1 <0>         0.0000
   6179 WAT       -37.9320  -73.9160   -5.0830 O         1 <0>         0.0000
   6180 WAT       -37.9320  -73.9160   -4.8330 O         1 <0>         0.0000
   6181 WAT       -37.9320  -73.9160   -4.5830 O         1 <0>         0.0000
   6182 WAT       -37.9320  -73.9160   -4.3330 O         1 <0>         0.0000
   6183 WAT       -37.9320  -73.9160   -4.0830 O         1 <0>         0.0000
   6184 WAT       -37.9320  -73.9160   -3.8330 O         1 <0>         0.0000
   6185 WAT       -37.9320  -73.9160   -3.5830 O         1 <0>         0.0000
   6186 WAT       -37.9320  -73.9160   -3.3330 O         1 <0>         0.0000
   6187 WAT       -37.9320  -73.9160   -3.0830 O         1 <0>         0.0000
   6188 WAT       -37.9320  -73.9160   -2.8330 O         1 <0>         0.0000
   6189 WAT       -37.9320  -73.9160   -2.5830 O         1 <0>         0.0000
   6190 WAT       -37.9320  -73.9160   -2.3330 O         1 <0>         0.0000
   6191 WAT       -37.9320  -73.9160   -2.0830 O         1 <0>         0.0000
   6192 WAT       -37.9320  -73.9160   -1.8330 O         1 <0>         0.0000
   6193 WAT       -37.9320  -73.9160   -1.5830 O         1 <0>         0.0000
   6194 WAT       -37.9320  -73.9160   -1.3330 O         1 <0>         0.0000
   6195 WAT       -37.9320  -73.9160   -1.0830 O         1 <0>         0.0000
   6196 WAT       -37.9320  -73.9160   -0.8330 O         1 <0>         0.0000
   6197 WAT       -37.9320  -73.9160   -0.5830 O         1 <0>         0.0000
   6198 WAT       -37.9320  -73.9160   -0.3330 O         1 <0>         0.0000
   6199 WAT       -37.9320  -73.9160   -0.0830 O         1 <0>         0.0000
   6200 WAT       -37.9320  -73.6660   -9.8330 O         1 <0>         0.0000
   6201 WAT       -37.9320  -73.6660   -9.5830 O         1 <0>         0.0000
   6202 WAT       -37.9320  -73.6660   -9.3330 O         1 <0>         0.0000
   6203 WAT       -37.9320  -73.6660   -9.0830 O         1 <0>         0.0000
   6204 WAT       -37.9320  -73.6660   -8.8330 O         1 <0>         0.0000
   6205 WAT       -37.9320  -73.6660   -8.5830 O         1 <0>         0.0000
   6206 WAT       -37.9320  -73.6660   -8.3330 O         1 <0>         0.0000
   6207 WAT       -37.9320  -73.6660   -8.0830 O         1 <0>         0.0000
   6208 WAT       -37.9320  -73.6660   -7.8330 O         1 <0>         0.0000
   6209 WAT       -37.9320  -73.6660   -7.5830 O         1 <0>         0.0000
   6210 WAT       -37.9320  -73.6660   -7.3330 O         1 <0>         0.0000
   6211 WAT       -37.9320  -73.6660   -7.0830 O         1 <0>         0.0000
   6212 WAT       -37.9320  -73.6660   -6.8330 O         1 <0>         0.0000
   6213 WAT       -37.9320  -73.6660   -6.5830 O         1 <0>         0.0000
   6214 WAT       -37.9320  -73.6660   -6.3330 O         1 <0>         0.0000
   6215 WAT       -37.9320  -73.6660   -6.0830 O         1 <0>         0.0000
   6216 WAT       -37.9320  -73.6660   -5.8330 O         1 <0>         0.0000
   6217 WAT       -37.9320  -73.6660   -5.5830 O         1 <0>         0.0000
   6218 WAT       -37.9320  -73.6660   -5.3330 O         1 <0>         0.0000
   6219 WAT       -37.9320  -73.6660   -5.0830 O         1 <0>         0.0000
   6220 WAT       -37.9320  -73.6660   -4.8330 O         1 <0>         0.0000
   6221 WAT       -37.9320  -73.6660   -4.5830 O         1 <0>         0.0000
   6222 WAT       -37.9320  -73.6660   -4.3330 O         1 <0>         0.0000
   6223 WAT       -37.9320  -73.6660   -4.0830 O         1 <0>         0.0000
   6224 WAT       -37.9320  -73.6660   -3.8330 O         1 <0>         0.0000
   6225 WAT       -37.9320  -73.6660   -3.5830 O         1 <0>         0.0000
   6226 WAT       -37.9320  -73.6660   -3.3330 O         1 <0>         0.0000
   6227 WAT       -37.9320  -73.6660   -3.0830 O         1 <0>         0.0000
   6228 WAT       -37.9320  -73.6660   -2.8330 O         1 <0>         0.0000
   6229 WAT       -37.9320  -73.6660   -2.5830 O         1 <0>         0.0000
   6230 WAT       -37.9320  -73.6660   -2.3330 O         1 <0>         0.0000
   6231 WAT       -37.9320  -73.6660   -2.0830 O         1 <0>         0.0000
   6232 WAT       -37.9320  -73.6660   -1.8330 O         1 <0>         0.0000
   6233 WAT       -37.9320  -73.6660   -1.5830 O         1 <0>         0.0000
   6234 WAT       -37.9320  -73.6660   -1.3330 O         1 <0>         0.0000
   6235 WAT       -37.9320  -73.6660   -1.0830 O         1 <0>         0.0000
   6236 WAT       -37.9320  -73.6660   -0.8330 O         1 <0>         0.0000
   6237 WAT       -37.9320  -73.6660   -0.5830 O         1 <0>         0.0000
   6238 WAT       -37.9320  -73.6660   -0.3330 O         1 <0>         0.0000
   6239 WAT       -37.9320  -73.6660   -0.0830 O         1 <0>         0.0000
   6240 WAT       -37.9320  -73.4160   -9.8330 O         1 <0>         0.0000
   6241 WAT       -37.9320  -73.4160   -9.5830 O         1 <0>         0.0000
   6242 WAT       -37.9320  -73.4160   -9.3330 O         1 <0>         0.0000
   6243 WAT       -37.9320  -73.4160   -9.0830 O         1 <0>         0.0000
   6244 WAT       -37.9320  -73.4160   -8.8330 O         1 <0>         0.0000
   6245 WAT       -37.9320  -73.4160   -8.5830 O         1 <0>         0.0000
   6246 WAT       -37.9320  -73.4160   -8.3330 O         1 <0>         0.0000
   6247 WAT       -37.9320  -73.4160   -8.0830 O         1 <0>         0.0000
   6248 WAT       -37.9320  -73.4160   -7.8330 O         1 <0>         0.0000
   6249 WAT       -37.9320  -73.4160   -7.5830 O         1 <0>         0.0000
   6250 WAT       -37.9320  -73.4160   -7.3330 O         1 <0>         0.0000
   6251 WAT       -37.9320  -73.4160   -7.0830 O         1 <0>         0.0000
   6252 WAT       -37.9320  -73.4160   -6.8330 O         1 <0>         0.0000
   6253 WAT       -37.9320  -73.4160   -6.5830 O         1 <0>         0.0000
   6254 WAT       -37.9320  -73.4160   -6.3330 O         1 <0>         0.0000
   6255 WAT       -37.9320  -73.4160   -6.0830 O         1 <0>         0.0000
   6256 WAT       -37.9320  -73.4160   -5.8330 O         1 <0>         0.0000
   6257 WAT       -37.9320  -73.4160   -5.5830 O         1 <0>         0.0000
   6258 WAT       -37.9320  -73.4160   -5.3330 O         1 <0>         0.0000
   6259 WAT       -37.9320  -73.4160   -5.0830 O         1 <0>         0.0000
   6260 WAT       -37.9320  -73.4160   -4.8330 O         1 <0>         0.0000
   6261 WAT       -37.9320  -73.4160   -4.5830 O         1 <0>         0.0000
   6262 WAT       -37.9320  -73.4160   -4.3330 O         1 <0>         0.0000
   6263 WAT       -37.9320  -73.4160   -4.0830 O         1 <0>         0.0000
   6264 WAT       -37.9320  -73.4160   -3.8330 O         1 <0>         0.0000
   6265 WAT       -37.9320  -73.4160   -3.5830 O         1 <0>         0.0000
   6266 WAT       -37.9320  -73.4160   -3.3330 O         1 <0>         0.0000
   6267 WAT       -37.9320  -73.4160   -3.0830 O         1 <0>         0.0000
   6268 WAT       -37.9320  -73.4160   -2.8330 O         1 <0>         0.0000
   6269 WAT       -37.9320  -73.4160   -2.5830 O         1 <0>         0.0000
   6270 WAT       -37.9320  -73.4160   -2.3330 O         1 <0>         0.0000
   6271 WAT       -37.9320  -73.4160   -2.0830 O         1 <0>         0.0000
   6272 WAT       -37.9320  -73.4160   -1.8330 O         1 <0>         0.0000
   6273 WAT       -37.9320  -73.4160   -1.5830 O         1 <0>         0.0000
   6274 WAT       -37.9320  -73.4160   -1.3330 O         1 <0>         0.0000
   6275 WAT       -37.9320  -73.4160   -1.0830 O         1 <0>         0.0000
   6276 WAT       -37.9320  -73.4160   -0.8330 O         1 <0>         0.0000
   6277 WAT       -37.9320  -73.4160   -0.5830 O         1 <0>         0.0000
   6278 WAT       -37.9320  -73.4160   -0.3330 O         1 <0>         0.0000
   6279 WAT       -37.9320  -73.4160   -0.0830 O         1 <0>         0.0000
   6280 WAT       -37.9320  -73.1660   -9.8330 O         1 <0>         0.0000
   6281 WAT       -37.9320  -73.1660   -9.5830 O         1 <0>         0.0000
   6282 WAT       -37.9320  -73.1660   -9.3330 O         1 <0>         0.0000
   6283 WAT       -37.9320  -73.1660   -9.0830 O         1 <0>         0.0000
   6284 WAT       -37.9320  -73.1660   -8.8330 O         1 <0>         0.0000
   6285 WAT       -37.9320  -73.1660   -8.5830 O         1 <0>         0.0000
   6286 WAT       -37.9320  -73.1660   -8.3330 O         1 <0>         0.0000
   6287 WAT       -37.9320  -73.1660   -8.0830 O         1 <0>         0.0000
   6288 WAT       -37.9320  -73.1660   -7.8330 O         1 <0>         0.0000
   6289 WAT       -37.9320  -73.1660   -7.5830 O         1 <0>         0.0000
   6290 WAT       -37.9320  -73.1660   -7.3330 O         1 <0>         0.0000
   6291 WAT       -37.9320  -73.1660   -7.0830 O         1 <0>         0.0000
   6292 WAT       -37.9320  -73.1660   -6.8330 O         1 <0>         0.0000
   6293 WAT       -37.9320  -73.1660   -6.5830 O         1 <0>         0.0000
   6294 WAT       -37.9320  -73.1660   -6.3330 O         1 <0>         0.0000
   6295 WAT       -37.9320  -73.1660   -6.0830 O         1 <0>         0.0000
   6296 WAT       -37.9320  -73.1660   -5.8330 O         1 <0>         0.0000
   6297 WAT       -37.9320  -73.1660   -5.5830 O         1 <0>         0.0000
   6298 WAT       -37.9320  -73.1660   -5.3330 O         1 <0>         0.0000
   6299 WAT       -37.9320  -73.1660   -5.0830 O         1 <0>         0.0000
   6300 WAT       -37.9320  -73.1660   -4.8330 O         1 <0>         0.0000
   6301 WAT       -37.9320  -73.1660   -4.5830 O         1 <0>         0.0000
   6302 WAT       -37.9320  -73.1660   -4.3330 O         1 <0>         0.0000
   6303 WAT       -37.9320  -73.1660   -4.0830 O         1 <0>         0.0000
   6304 WAT       -37.9320  -73.1660   -3.8330 O         1 <0>         0.0000
   6305 WAT       -37.9320  -73.1660   -3.5830 O         1 <0>         0.0000
   6306 WAT       -37.9320  -73.1660   -3.3330 O         1 <0>         0.0000
   6307 WAT       -37.9320  -73.1660   -3.0830 O         1 <0>         0.0000
   6308 WAT       -37.9320  -73.1660   -2.8330 O         1 <0>         0.0000
   6309 WAT       -37.9320  -73.1660   -2.5830 O         1 <0>         0.0000
   6310 WAT       -37.9320  -73.1660   -2.3330 O         1 <0>         0.0000
   6311 WAT       -37.9320  -73.1660   -2.0830 O         1 <0>         0.0000
   6312 WAT       -37.9320  -73.1660   -1.8330 O         1 <0>         0.0000
   6313 WAT       -37.9320  -73.1660   -1.5830 O         1 <0>         0.0000
   6314 WAT       -37.9320  -73.1660   -1.3330 O         1 <0>         0.0000
   6315 WAT       -37.9320  -73.1660   -1.0830 O         1 <0>         0.0000
   6316 WAT       -37.9320  -73.1660   -0.8330 O         1 <0>         0.0000
   6317 WAT       -37.9320  -73.1660   -0.5830 O         1 <0>         0.0000
   6318 WAT       -37.9320  -73.1660   -0.3330 O         1 <0>         0.0000
   6319 WAT       -37.9320  -73.1660   -0.0830 O         1 <0>         0.0000
   6320 WAT       -37.9320  -72.9160   -9.8330 O         1 <0>         0.0000
   6321 WAT       -37.9320  -72.9160   -9.5830 O         1 <0>         0.0000
   6322 WAT       -37.9320  -72.9160   -9.3330 O         1 <0>         0.0000
   6323 WAT       -37.9320  -72.9160   -9.0830 O         1 <0>         0.0000
   6324 WAT       -37.9320  -72.9160   -8.8330 O         1 <0>         0.0000
   6325 WAT       -37.9320  -72.9160   -8.5830 O         1 <0>         0.0000
   6326 WAT       -37.9320  -72.9160   -8.3330 O         1 <0>         0.0000
   6327 WAT       -37.9320  -72.9160   -8.0830 O         1 <0>         0.0000
   6328 WAT       -37.9320  -72.9160   -7.8330 O         1 <0>         0.0000
   6329 WAT       -37.9320  -72.9160   -7.5830 O         1 <0>         0.0000
   6330 WAT       -37.9320  -72.9160   -7.3330 O         1 <0>         0.0000
   6331 WAT       -37.9320  -72.9160   -7.0830 O         1 <0>         0.0000
   6332 WAT       -37.9320  -72.9160   -6.8330 O         1 <0>         0.0000
   6333 WAT       -37.9320  -72.9160   -6.5830 O         1 <0>         0.0000
   6334 WAT       -37.9320  -72.9160   -6.3330 O         1 <0>         0.0000
   6335 WAT       -37.9320  -72.9160   -6.0830 O         1 <0>         0.0000
   6336 WAT       -37.9320  -72.9160   -5.8330 O         1 <0>         0.0000
   6337 WAT       -37.9320  -72.9160   -5.5830 O         1 <0>         0.0000
   6338 WAT       -37.9320  -72.9160   -5.3330 O         1 <0>         0.0000
   6339 WAT       -37.9320  -72.9160   -5.0830 O         1 <0>         0.0000
   6340 WAT       -37.9320  -72.9160   -4.8330 O         1 <0>         0.0000
   6341 WAT       -37.9320  -72.9160   -4.5830 O         1 <0>         0.0000
   6342 WAT       -37.9320  -72.9160   -4.3330 O         1 <0>         0.0000
   6343 WAT       -37.9320  -72.9160   -4.0830 O         1 <0>         0.0000
   6344 WAT       -37.9320  -72.9160   -3.8330 O         1 <0>         0.0000
   6345 WAT       -37.9320  -72.9160   -3.5830 O         1 <0>         0.0000
   6346 WAT       -37.9320  -72.9160   -3.3330 O         1 <0>         0.0000
   6347 WAT       -37.9320  -72.9160   -3.0830 O         1 <0>         0.0000
   6348 WAT       -37.9320  -72.9160   -2.8330 O         1 <0>         0.0000
   6349 WAT       -37.9320  -72.9160   -2.5830 O         1 <0>         0.0000
   6350 WAT       -37.9320  -72.9160   -2.3330 O         1 <0>         0.0000
   6351 WAT       -37.9320  -72.9160   -2.0830 O         1 <0>         0.0000
   6352 WAT       -37.9320  -72.9160   -1.8330 O         1 <0>         0.0000
   6353 WAT       -37.9320  -72.9160   -1.5830 O         1 <0>         0.0000
   6354 WAT       -37.9320  -72.9160   -1.3330 O         1 <0>         0.0000
   6355 WAT       -37.9320  -72.9160   -1.0830 O         1 <0>         0.0000
   6356 WAT       -37.9320  -72.9160   -0.8330 O         1 <0>         0.0000
   6357 WAT       -37.9320  -72.9160   -0.5830 O         1 <0>         0.0000
   6358 WAT       -37.9320  -72.9160   -0.3330 O         1 <0>         0.0000
   6359 WAT       -37.9320  -72.9160   -0.0830 O         1 <0>         0.0000
   6360 WAT       -37.9320  -72.6660   -9.8330 O         1 <0>         0.0000
   6361 WAT       -37.9320  -72.6660   -9.5830 O         1 <0>         0.0000
   6362 WAT       -37.9320  -72.6660   -9.3330 O         1 <0>         0.0000
   6363 WAT       -37.9320  -72.6660   -9.0830 O         1 <0>         0.0000
   6364 WAT       -37.9320  -72.6660   -8.8330 O         1 <0>         0.0000
   6365 WAT       -37.9320  -72.6660   -8.5830 O         1 <0>         0.0000
   6366 WAT       -37.9320  -72.6660   -8.3330 O         1 <0>         0.0000
   6367 WAT       -37.9320  -72.6660   -8.0830 O         1 <0>         0.0000
   6368 WAT       -37.9320  -72.6660   -7.8330 O         1 <0>         0.0000
   6369 WAT       -37.9320  -72.6660   -7.5830 O         1 <0>         0.0000
   6370 WAT       -37.9320  -72.6660   -7.3330 O         1 <0>         0.0000
   6371 WAT       -37.9320  -72.6660   -7.0830 O         1 <0>         0.0000
   6372 WAT       -37.9320  -72.6660   -6.8330 O         1 <0>         0.0000
   6373 WAT       -37.9320  -72.6660   -6.5830 O         1 <0>         0.0000
   6374 WAT       -37.9320  -72.6660   -6.3330 O         1 <0>         0.0000
   6375 WAT       -37.9320  -72.6660   -6.0830 O         1 <0>         0.0000
   6376 WAT       -37.9320  -72.6660   -5.8330 O         1 <0>         0.0000
   6377 WAT       -37.9320  -72.6660   -5.5830 O         1 <0>         0.0000
   6378 WAT       -37.9320  -72.6660   -5.3330 O         1 <0>         0.0000
   6379 WAT       -37.9320  -72.6660   -5.0830 O         1 <0>         0.0000
   6380 WAT       -37.9320  -72.6660   -4.8330 O         1 <0>         0.0000
   6381 WAT       -37.9320  -72.6660   -4.5830 O         1 <0>         0.0000
   6382 WAT       -37.9320  -72.6660   -4.3330 O         1 <0>         0.0000
   6383 WAT       -37.9320  -72.6660   -4.0830 O         1 <0>         0.0000
   6384 WAT       -37.9320  -72.6660   -3.8330 O         1 <0>         0.0000
   6385 WAT       -37.9320  -72.6660   -3.5830 O         1 <0>         0.0000
   6386 WAT       -37.9320  -72.6660   -3.3330 O         1 <0>         0.0000
   6387 WAT       -37.9320  -72.6660   -3.0830 O         1 <0>         0.0000
   6388 WAT       -37.9320  -72.6660   -2.8330 O         1 <0>         0.0000
   6389 WAT       -37.9320  -72.6660   -2.5830 O         1 <0>         0.0000
   6390 WAT       -37.9320  -72.6660   -2.3330 O         1 <0>         0.0000
   6391 WAT       -37.9320  -72.6660   -2.0830 O         1 <0>         0.0000
   6392 WAT       -37.9320  -72.6660   -1.8330 O         1 <0>         0.0000
   6393 WAT       -37.9320  -72.6660   -1.5830 O         1 <0>         0.0000
   6394 WAT       -37.9320  -72.6660   -1.3330 O         1 <0>         0.0000
   6395 WAT       -37.9320  -72.6660   -1.0830 O         1 <0>         0.0000
   6396 WAT       -37.9320  -72.6660   -0.8330 O         1 <0>         0.0000
   6397 WAT       -37.9320  -72.6660   -0.5830 O         1 <0>         0.0000
   6398 WAT       -37.9320  -72.6660   -0.3330 O         1 <0>         0.0000
   6399 WAT       -37.9320  -72.6660   -0.0830 O         1 <0>         0.0000
   6400 WAT       -37.9320  -72.4160   -9.8330 O         1 <0>         0.0000
   6401 WAT       -37.9320  -72.4160   -9.5830 O         1 <0>         0.0000
   6402 WAT       -37.9320  -72.4160   -9.3330 O         1 <0>         0.0000
   6403 WAT       -37.9320  -72.4160   -9.0830 O         1 <0>         0.0000
   6404 WAT       -37.9320  -72.4160   -8.8330 O         1 <0>         0.0000
   6405 WAT       -37.9320  -72.4160   -8.5830 O         1 <0>         0.0000
   6406 WAT       -37.9320  -72.4160   -8.3330 O         1 <0>         0.0000
   6407 WAT       -37.9320  -72.4160   -8.0830 O         1 <0>         0.0000
   6408 WAT       -37.9320  -72.4160   -7.8330 O         1 <0>         0.0000
   6409 WAT       -37.9320  -72.4160   -7.5830 O         1 <0>         0.0000
   6410 WAT       -37.9320  -72.4160   -7.3330 O         1 <0>         0.0000
   6411 WAT       -37.9320  -72.4160   -7.0830 O         1 <0>         0.0000
   6412 WAT       -37.9320  -72.4160   -6.8330 O         1 <0>         0.0000
   6413 WAT       -37.9320  -72.4160   -6.5830 O         1 <0>         0.0000
   6414 WAT       -37.9320  -72.4160   -6.3330 O         1 <0>         0.0000
   6415 WAT       -37.9320  -72.4160   -6.0830 O         1 <0>         0.0000
   6416 WAT       -37.9320  -72.4160   -5.8330 O         1 <0>         0.0000
   6417 WAT       -37.9320  -72.4160   -5.5830 O         1 <0>         0.0000
   6418 WAT       -37.9320  -72.4160   -5.3330 O         1 <0>         0.0000
   6419 WAT       -37.9320  -72.4160   -5.0830 O         1 <0>         0.0000
   6420 WAT       -37.9320  -72.4160   -4.8330 O         1 <0>         0.0000
   6421 WAT       -37.9320  -72.4160   -4.5830 O         1 <0>         0.0000
   6422 WAT       -37.9320  -72.4160   -4.3330 O         1 <0>         0.0000
   6423 WAT       -37.9320  -72.4160   -4.0830 O         1 <0>         0.0000
   6424 WAT       -37.9320  -72.4160   -3.8330 O         1 <0>         0.0000
   6425 WAT       -37.9320  -72.4160   -3.5830 O         1 <0>         0.0000
   6426 WAT       -37.9320  -72.4160   -3.3330 O         1 <0>         0.0000
   6427 WAT       -37.9320  -72.4160   -3.0830 O         1 <0>         0.0000
   6428 WAT       -37.9320  -72.4160   -2.8330 O         1 <0>         0.0000
   6429 WAT       -37.9320  -72.4160   -2.5830 O         1 <0>         0.0000
   6430 WAT       -37.9320  -72.4160   -2.3330 O         1 <0>         0.0000
   6431 WAT       -37.9320  -72.4160   -2.0830 O         1 <0>         0.0000
   6432 WAT       -37.9320  -72.4160   -1.8330 O         1 <0>         0.0000
   6433 WAT       -37.9320  -72.4160   -1.5830 O         1 <0>         0.0000
   6434 WAT       -37.9320  -72.4160   -1.3330 O         1 <0>         0.0000
   6435 WAT       -37.9320  -72.4160   -1.0830 O         1 <0>         0.0000
   6436 WAT       -37.9320  -72.4160   -0.8330 O         1 <0>         0.0000
   6437 WAT       -37.9320  -72.4160   -0.5830 O         1 <0>         0.0000
   6438 WAT       -37.9320  -72.4160   -0.3330 O         1 <0>         0.0000
   6439 WAT       -37.9320  -72.4160   -0.0830 O         1 <0>         0.0000
   6440 WAT       -37.9320  -72.1660   -9.8330 O         1 <0>         0.0000
   6441 WAT       -37.9320  -72.1660   -9.5830 O         1 <0>         0.0000
   6442 WAT       -37.9320  -72.1660   -9.3330 O         1 <0>         0.0000
   6443 WAT       -37.9320  -72.1660   -9.0830 O         1 <0>         0.0000
   6444 WAT       -37.9320  -72.1660   -8.8330 O         1 <0>         0.0000
   6445 WAT       -37.9320  -72.1660   -8.5830 O         1 <0>         0.0000
   6446 WAT       -37.9320  -72.1660   -8.3330 O         1 <0>         0.0000
   6447 WAT       -37.9320  -72.1660   -8.0830 O         1 <0>         0.0000
   6448 WAT       -37.9320  -72.1660   -7.8330 O         1 <0>         0.0000
   6449 WAT       -37.9320  -72.1660   -7.5830 O         1 <0>         0.0000
   6450 WAT       -37.9320  -72.1660   -7.3330 O         1 <0>         0.0000
   6451 WAT       -37.9320  -72.1660   -7.0830 O         1 <0>         0.0000
   6452 WAT       -37.9320  -72.1660   -6.8330 O         1 <0>         0.0000
   6453 WAT       -37.9320  -72.1660   -6.5830 O         1 <0>         0.0000
   6454 WAT       -37.9320  -72.1660   -6.3330 O         1 <0>         0.0000
   6455 WAT       -37.9320  -72.1660   -6.0830 O         1 <0>         0.0000
   6456 WAT       -37.9320  -72.1660   -5.8330 O         1 <0>         0.0000
   6457 WAT       -37.9320  -72.1660   -5.5830 O         1 <0>         0.0000
   6458 WAT       -37.9320  -72.1660   -5.3330 O         1 <0>         0.0000
   6459 WAT       -37.9320  -72.1660   -5.0830 O         1 <0>         0.0000
   6460 WAT       -37.9320  -72.1660   -4.8330 O         1 <0>         0.0000
   6461 WAT       -37.9320  -72.1660   -4.5830 O         1 <0>         0.0000
   6462 WAT       -37.9320  -72.1660   -4.3330 O         1 <0>         0.0000
   6463 WAT       -37.9320  -72.1660   -4.0830 O         1 <0>         0.0000
   6464 WAT       -37.9320  -72.1660   -3.8330 O         1 <0>         0.0000
   6465 WAT       -37.9320  -72.1660   -3.5830 O         1 <0>         0.0000
   6466 WAT       -37.9320  -72.1660   -3.3330 O         1 <0>         0.0000
   6467 WAT       -37.9320  -72.1660   -3.0830 O         1 <0>         0.0000
   6468 WAT       -37.9320  -72.1660   -2.8330 O         1 <0>         0.0000
   6469 WAT       -37.9320  -72.1660   -2.5830 O         1 <0>         0.0000
   6470 WAT       -37.9320  -72.1660   -2.3330 O         1 <0>         0.0000
   6471 WAT       -37.9320  -72.1660   -2.0830 O         1 <0>         0.0000
   6472 WAT       -37.9320  -72.1660   -1.8330 O         1 <0>         0.0000
   6473 WAT       -37.9320  -72.1660   -1.5830 O         1 <0>         0.0000
   6474 WAT       -37.9320  -72.1660   -1.3330 O         1 <0>         0.0000
   6475 WAT       -37.9320  -72.1660   -1.0830 O         1 <0>         0.0000
   6476 WAT       -37.9320  -72.1660   -0.8330 O         1 <0>         0.0000
   6477 WAT       -37.9320  -72.1660   -0.5830 O         1 <0>         0.0000
   6478 WAT       -37.9320  -72.1660   -0.3330 O         1 <0>         0.0000
   6479 WAT       -37.9320  -72.1660   -0.0830 O         1 <0>         0.0000
   6480 WAT       -37.9320  -71.9160   -9.8330 O         1 <0>         0.0000
   6481 WAT       -37.9320  -71.9160   -9.5830 O         1 <0>         0.0000
   6482 WAT       -37.9320  -71.9160   -9.3330 O         1 <0>         0.0000
   6483 WAT       -37.9320  -71.9160   -9.0830 O         1 <0>         0.0000
   6484 WAT       -37.9320  -71.9160   -8.8330 O         1 <0>         0.0000
   6485 WAT       -37.9320  -71.9160   -8.5830 O         1 <0>         0.0000
   6486 WAT       -37.9320  -71.9160   -8.3330 O         1 <0>         0.0000
   6487 WAT       -37.9320  -71.9160   -8.0830 O         1 <0>         0.0000
   6488 WAT       -37.9320  -71.9160   -7.8330 O         1 <0>         0.0000
   6489 WAT       -37.9320  -71.9160   -7.5830 O         1 <0>         0.0000
   6490 WAT       -37.9320  -71.9160   -7.3330 O         1 <0>         0.0000
   6491 WAT       -37.9320  -71.9160   -7.0830 O         1 <0>         0.0000
   6492 WAT       -37.9320  -71.9160   -6.8330 O         1 <0>         0.0000
   6493 WAT       -37.9320  -71.9160   -6.5830 O         1 <0>         0.0000
   6494 WAT       -37.9320  -71.9160   -6.3330 O         1 <0>         0.0000
   6495 WAT       -37.9320  -71.9160   -6.0830 O         1 <0>         0.0000
   6496 WAT       -37.9320  -71.9160   -5.8330 O         1 <0>         0.0000
   6497 WAT       -37.9320  -71.9160   -5.5830 O         1 <0>         0.0000
   6498 WAT       -37.9320  -71.9160   -5.3330 O         1 <0>         0.0000
   6499 WAT       -37.9320  -71.9160   -5.0830 O         1 <0>         0.0000
   6500 WAT       -37.9320  -71.9160   -4.8330 O         1 <0>         0.0000
   6501 WAT       -37.9320  -71.9160   -4.5830 O         1 <0>         0.0000
   6502 WAT       -37.9320  -71.9160   -4.3330 O         1 <0>         0.0000
   6503 WAT       -37.9320  -71.9160   -4.0830 O         1 <0>         0.0000
   6504 WAT       -37.9320  -71.9160   -3.8330 O         1 <0>         0.0000
   6505 WAT       -37.9320  -71.9160   -3.5830 O         1 <0>         0.0000
   6506 WAT       -37.9320  -71.9160   -3.3330 O         1 <0>         0.0000
   6507 WAT       -37.9320  -71.9160   -3.0830 O         1 <0>         0.0000
   6508 WAT       -37.9320  -71.9160   -2.8330 O         1 <0>         0.0000
   6509 WAT       -37.9320  -71.9160   -2.5830 O         1 <0>         0.0000
   6510 WAT       -37.9320  -71.9160   -2.3330 O         1 <0>         0.0000
   6511 WAT       -37.9320  -71.9160   -2.0830 O         1 <0>         0.0000
   6512 WAT       -37.9320  -71.9160   -1.8330 O         1 <0>         0.0000
   6513 WAT       -37.9320  -71.9160   -1.5830 O         1 <0>         0.0000
   6514 WAT       -37.9320  -71.9160   -1.3330 O         1 <0>         0.0000
   6515 WAT       -37.9320  -71.9160   -1.0830 O         1 <0>         0.0000
   6516 WAT       -37.9320  -71.9160   -0.8330 O         1 <0>         0.0000
   6517 WAT       -37.9320  -71.9160   -0.5830 O         1 <0>         0.0000
   6518 WAT       -37.9320  -71.9160   -0.3330 O         1 <0>         0.0000
   6519 WAT       -37.9320  -71.9160   -0.0830 O         1 <0>         0.0000
   6520 WAT       -37.9320  -71.6660   -9.8330 O         1 <0>         0.0000
   6521 WAT       -37.9320  -71.6660   -9.5830 O         1 <0>         0.0000
   6522 WAT       -37.9320  -71.6660   -9.3330 O         1 <0>         0.0000
   6523 WAT       -37.9320  -71.6660   -9.0830 O         1 <0>         0.0000
   6524 WAT       -37.9320  -71.6660   -8.8330 O         1 <0>         0.0000
   6525 WAT       -37.9320  -71.6660   -8.5830 O         1 <0>         0.0000
   6526 WAT       -37.9320  -71.6660   -8.3330 O         1 <0>         0.0000
   6527 WAT       -37.9320  -71.6660   -8.0830 O         1 <0>         0.0000
   6528 WAT       -37.9320  -71.6660   -7.8330 O         1 <0>         0.0000
   6529 WAT       -37.9320  -71.6660   -7.5830 O         1 <0>         0.0000
   6530 WAT       -37.9320  -71.6660   -7.3330 O         1 <0>         0.0000
   6531 WAT       -37.9320  -71.6660   -7.0830 O         1 <0>         0.0000
   6532 WAT       -37.9320  -71.6660   -6.8330 O         1 <0>         0.0000
   6533 WAT       -37.9320  -71.6660   -6.5830 O         1 <0>         0.0000
   6534 WAT       -37.9320  -71.6660   -6.3330 O         1 <0>         0.0000
   6535 WAT       -37.9320  -71.6660   -6.0830 O         1 <0>         0.0000
   6536 WAT       -37.9320  -71.6660   -5.8330 O         1 <0>         0.0000
   6537 WAT       -37.9320  -71.6660   -5.5830 O         1 <0>         0.0000
   6538 WAT       -37.9320  -71.6660   -5.3330 O         1 <0>         0.0000
   6539 WAT       -37.9320  -71.6660   -5.0830 O         1 <0>         0.0000
   6540 WAT       -37.9320  -71.6660   -4.8330 O         1 <0>         0.0000
   6541 WAT       -37.9320  -71.6660   -4.5830 O         1 <0>         0.0000
   6542 WAT       -37.9320  -71.6660   -4.3330 O         1 <0>         0.0000
   6543 WAT       -37.9320  -71.6660   -4.0830 O         1 <0>         0.0000
   6544 WAT       -37.9320  -71.6660   -3.8330 O         1 <0>         0.0000
   6545 WAT       -37.9320  -71.6660   -3.5830 O         1 <0>         0.0000
   6546 WAT       -37.9320  -71.6660   -3.3330 O         1 <0>         0.0000
   6547 WAT       -37.9320  -71.6660   -3.0830 O         1 <0>         0.0000
   6548 WAT       -37.9320  -71.6660   -2.8330 O         1 <0>         0.0000
   6549 WAT       -37.9320  -71.6660   -2.5830 O         1 <0>         0.0000
   6550 WAT       -37.9320  -71.6660   -2.3330 O         1 <0>         0.0000
   6551 WAT       -37.9320  -71.6660   -2.0830 O         1 <0>         0.0000
   6552 WAT       -37.9320  -71.6660   -1.8330 O         1 <0>         0.0000
   6553 WAT       -37.9320  -71.6660   -1.5830 O         1 <0>         0.0000
   6554 WAT       -37.9320  -71.6660   -1.3330 O         1 <0>         0.0000
   6555 WAT       -37.9320  -71.6660   -1.0830 O         1 <0>         0.0000
   6556 WAT       -37.9320  -71.6660   -0.8330 O         1 <0>         0.0000
   6557 WAT       -37.9320  -71.6660   -0.5830 O         1 <0>         0.0000
   6558 WAT       -37.9320  -71.6660   -0.3330 O         1 <0>         0.0000
   6559 WAT       -37.9320  -71.6660   -0.0830 O         1 <0>         0.0000
   6560 WAT       -37.9320  -71.4160   -9.8330 O         1 <0>         0.0000
   6561 WAT       -37.9320  -71.4160   -9.5830 O         1 <0>         0.0000
   6562 WAT       -37.9320  -71.4160   -9.3330 O         1 <0>         0.0000
   6563 WAT       -37.9320  -71.4160   -9.0830 O         1 <0>         0.0000
   6564 WAT       -37.9320  -71.4160   -8.8330 O         1 <0>         0.0000
   6565 WAT       -37.9320  -71.4160   -8.5830 O         1 <0>         0.0000
   6566 WAT       -37.9320  -71.4160   -8.3330 O         1 <0>         0.0000
   6567 WAT       -37.9320  -71.4160   -8.0830 O         1 <0>         0.0000
   6568 WAT       -37.9320  -71.4160   -7.8330 O         1 <0>         0.0000
   6569 WAT       -37.9320  -71.4160   -7.5830 O         1 <0>         0.0000
   6570 WAT       -37.9320  -71.4160   -7.3330 O         1 <0>         0.0000
   6571 WAT       -37.9320  -71.4160   -7.0830 O         1 <0>         0.0000
   6572 WAT       -37.9320  -71.4160   -6.8330 O         1 <0>         0.0000
   6573 WAT       -37.9320  -71.4160   -6.5830 O         1 <0>         0.0000
   6574 WAT       -37.9320  -71.4160   -6.3330 O         1 <0>         0.0000
   6575 WAT       -37.9320  -71.4160   -6.0830 O         1 <0>         0.0000
   6576 WAT       -37.9320  -71.4160   -5.8330 O         1 <0>         0.0000
   6577 WAT       -37.9320  -71.4160   -5.5830 O         1 <0>         0.0000
   6578 WAT       -37.9320  -71.4160   -5.3330 O         1 <0>         0.0000
   6579 WAT       -37.9320  -71.4160   -5.0830 O         1 <0>         0.0000
   6580 WAT       -37.9320  -71.4160   -4.8330 O         1 <0>         0.0000
   6581 WAT       -37.9320  -71.4160   -4.5830 O         1 <0>         0.0000
   6582 WAT       -37.9320  -71.4160   -4.3330 O         1 <0>         0.0000
   6583 WAT       -37.9320  -71.4160   -4.0830 O         1 <0>         0.0000
   6584 WAT       -37.9320  -71.4160   -3.8330 O         1 <0>         0.0000
   6585 WAT       -37.9320  -71.4160   -3.5830 O         1 <0>         0.0000
   6586 WAT       -37.9320  -71.4160   -3.3330 O         1 <0>         0.0000
   6587 WAT       -37.9320  -71.4160   -3.0830 O         1 <0>         0.0000
   6588 WAT       -37.9320  -71.4160   -2.8330 O         1 <0>         0.0000
   6589 WAT       -37.9320  -71.4160   -2.5830 O         1 <0>         0.0000
   6590 WAT       -37.9320  -71.4160   -2.3330 O         1 <0>         0.0000
   6591 WAT       -37.9320  -71.4160   -2.0830 O         1 <0>         0.0000
   6592 WAT       -37.9320  -71.4160   -1.8330 O         1 <0>         0.0000
   6593 WAT       -37.9320  -71.4160   -1.5830 O         1 <0>         0.0000
   6594 WAT       -37.9320  -71.4160   -1.3330 O         1 <0>         0.0000
   6595 WAT       -37.9320  -71.4160   -1.0830 O         1 <0>         0.0000
   6596 WAT       -37.9320  -71.4160   -0.8330 O         1 <0>         0.0000
   6597 WAT       -37.9320  -71.4160   -0.5830 O         1 <0>         0.0000
   6598 WAT       -37.9320  -71.4160   -0.3330 O         1 <0>         0.0000
   6599 WAT       -37.9320  -71.4160   -0.0830 O         1 <0>         0.0000
   6600 WAT       -37.9320  -71.1660   -9.8330 O         1 <0>         0.0000
   6601 WAT       -37.9320  -71.1660   -9.5830 O         1 <0>         0.0000
   6602 WAT       -37.9320  -71.1660   -9.3330 O         1 <0>         0.0000
   6603 WAT       -37.9320  -71.1660   -9.0830 O         1 <0>         0.0000
   6604 WAT       -37.9320  -71.1660   -8.8330 O         1 <0>         0.0000
   6605 WAT       -37.9320  -71.1660   -8.5830 O         1 <0>         0.0000
   6606 WAT       -37.9320  -71.1660   -8.3330 O         1 <0>         0.0000
   6607 WAT       -37.9320  -71.1660   -8.0830 O         1 <0>         0.0000
   6608 WAT       -37.9320  -71.1660   -7.8330 O         1 <0>         0.0000
   6609 WAT       -37.9320  -71.1660   -7.5830 O         1 <0>         0.0000
   6610 WAT       -37.9320  -71.1660   -7.3330 O         1 <0>         0.0000
   6611 WAT       -37.9320  -71.1660   -7.0830 O         1 <0>         0.0000
   6612 WAT       -37.9320  -71.1660   -6.8330 O         1 <0>         0.0000
   6613 WAT       -37.9320  -71.1660   -6.5830 O         1 <0>         0.0000
   6614 WAT       -37.9320  -71.1660   -6.3330 O         1 <0>         0.0000
   6615 WAT       -37.9320  -71.1660   -6.0830 O         1 <0>         0.0000
   6616 WAT       -37.9320  -71.1660   -5.8330 O         1 <0>         0.0000
   6617 WAT       -37.9320  -71.1660   -5.5830 O         1 <0>         0.0000
   6618 WAT       -37.9320  -71.1660   -5.3330 O         1 <0>         0.0000
   6619 WAT       -37.9320  -71.1660   -5.0830 O         1 <0>         0.0000
   6620 WAT       -37.9320  -71.1660   -4.8330 O         1 <0>         0.0000
   6621 WAT       -37.9320  -71.1660   -4.5830 O         1 <0>         0.0000
   6622 WAT       -37.9320  -71.1660   -4.3330 O         1 <0>         0.0000
   6623 WAT       -37.9320  -71.1660   -4.0830 O         1 <0>         0.0000
   6624 WAT       -37.9320  -71.1660   -3.8330 O         1 <0>         0.0000
   6625 WAT       -37.9320  -71.1660   -3.5830 O         1 <0>         0.0000
   6626 WAT       -37.9320  -71.1660   -3.3330 O         1 <0>         0.0000
   6627 WAT       -37.9320  -71.1660   -3.0830 O         1 <0>         0.0000
   6628 WAT       -37.9320  -71.1660   -2.8330 O         1 <0>         0.0000
   6629 WAT       -37.9320  -71.1660   -2.5830 O         1 <0>         0.0000
   6630 WAT       -37.9320  -71.1660   -2.3330 O         1 <0>         0.0000
   6631 WAT       -37.9320  -71.1660   -2.0830 O         1 <0>         0.0000
   6632 WAT       -37.9320  -71.1660   -1.8330 O         1 <0>         0.0000
   6633 WAT       -37.9320  -71.1660   -1.5830 O         1 <0>         0.0000
   6634 WAT       -37.9320  -71.1660   -1.3330 O         1 <0>         0.0000
   6635 WAT       -37.9320  -71.1660   -1.0830 O         1 <0>         0.0000
   6636 WAT       -37.9320  -71.1660   -0.8330 O         1 <0>         0.0000
   6637 WAT       -37.9320  -71.1660   -0.5830 O         1 <0>         0.0000
   6638 WAT       -37.9320  -71.1660   -0.3330 O         1 <0>         0.0000
   6639 WAT       -37.9320  -71.1660   -0.0830 O         1 <0>         0.0000
   6640 WAT       -37.9320  -70.9160   -9.8330 O         1 <0>         0.0000
   6641 WAT       -37.9320  -70.9160   -9.5830 O         1 <0>         0.0000
   6642 WAT       -37.9320  -70.9160   -9.3330 O         1 <0>         0.0000
   6643 WAT       -37.9320  -70.9160   -9.0830 O         1 <0>         0.0000
   6644 WAT       -37.9320  -70.9160   -8.8330 O         1 <0>         0.0000
   6645 WAT       -37.9320  -70.9160   -8.5830 O         1 <0>         0.0000
   6646 WAT       -37.9320  -70.9160   -8.3330 O         1 <0>         0.0000
   6647 WAT       -37.9320  -70.9160   -8.0830 O         1 <0>         0.0000
   6648 WAT       -37.9320  -70.9160   -7.8330 O         1 <0>         0.0000
   6649 WAT       -37.9320  -70.9160   -7.5830 O         1 <0>         0.0000
   6650 WAT       -37.9320  -70.9160   -7.3330 O         1 <0>         0.0000
   6651 WAT       -37.9320  -70.9160   -7.0830 O         1 <0>         0.0000
   6652 WAT       -37.9320  -70.9160   -6.8330 O         1 <0>         0.0000
   6653 WAT       -37.9320  -70.9160   -6.5830 O         1 <0>         0.0000
   6654 WAT       -37.9320  -70.9160   -6.3330 O         1 <0>         0.0000
   6655 WAT       -37.9320  -70.9160   -6.0830 O         1 <0>         0.0000
   6656 WAT       -37.9320  -70.9160   -5.8330 O         1 <0>         0.0000
   6657 WAT       -37.9320  -70.9160   -5.5830 O         1 <0>         0.0000
   6658 WAT       -37.9320  -70.9160   -5.3330 O         1 <0>         0.0000
   6659 WAT       -37.9320  -70.9160   -5.0830 O         1 <0>         0.0000
   6660 WAT       -37.9320  -70.9160   -4.8330 O         1 <0>         0.0000
   6661 WAT       -37.9320  -70.9160   -4.5830 O         1 <0>         0.0000
   6662 WAT       -37.9320  -70.9160   -4.3330 O         1 <0>         0.0000
   6663 WAT       -37.9320  -70.9160   -4.0830 O         1 <0>         0.0000
   6664 WAT       -37.9320  -70.9160   -3.8330 O         1 <0>         0.0000
   6665 WAT       -37.9320  -70.9160   -3.5830 O         1 <0>         0.0000
   6666 WAT       -37.9320  -70.9160   -3.3330 O         1 <0>         0.0000
   6667 WAT       -37.9320  -70.9160   -3.0830 O         1 <0>         0.0000
   6668 WAT       -37.9320  -70.9160   -2.8330 O         1 <0>         0.0000
   6669 WAT       -37.9320  -70.9160   -2.5830 O         1 <0>         0.0000
   6670 WAT       -37.9320  -70.9160   -2.3330 O         1 <0>         0.0000
   6671 WAT       -37.9320  -70.9160   -2.0830 O         1 <0>         0.0000
   6672 WAT       -37.9320  -70.9160   -1.8330 O         1 <0>         0.0000
   6673 WAT       -37.9320  -70.9160   -1.5830 O         1 <0>         0.0000
   6674 WAT       -37.9320  -70.9160   -1.3330 O         1 <0>         0.0000
   6675 WAT       -37.9320  -70.9160   -1.0830 O         1 <0>         0.0000
   6676 WAT       -37.9320  -70.9160   -0.8330 O         1 <0>         0.0000
   6677 WAT       -37.9320  -70.9160   -0.5830 O         1 <0>         0.0000
   6678 WAT       -37.9320  -70.9160   -0.3330 O         1 <0>         0.0000
   6679 WAT       -37.9320  -70.9160   -0.0830 O         1 <0>         0.0000
   6680 WAT       -37.9320  -70.6660   -9.8330 O         1 <0>         0.0000
   6681 WAT       -37.9320  -70.6660   -9.5830 O         1 <0>         0.0000
   6682 WAT       -37.9320  -70.6660   -9.3330 O         1 <0>         0.0000
   6683 WAT       -37.9320  -70.6660   -9.0830 O         1 <0>         0.0000
   6684 WAT       -37.9320  -70.6660   -8.8330 O         1 <0>         0.0000
   6685 WAT       -37.9320  -70.6660   -8.5830 O         1 <0>         0.0000
   6686 WAT       -37.9320  -70.6660   -8.3330 O         1 <0>         0.0000
   6687 WAT       -37.9320  -70.6660   -8.0830 O         1 <0>         0.0000
   6688 WAT       -37.9320  -70.6660   -7.8330 O         1 <0>         0.0000
   6689 WAT       -37.9320  -70.6660   -7.5830 O         1 <0>         0.0000
   6690 WAT       -37.9320  -70.6660   -7.3330 O         1 <0>         0.0000
   6691 WAT       -37.9320  -70.6660   -7.0830 O         1 <0>         0.0000
   6692 WAT       -37.9320  -70.6660   -6.8330 O         1 <0>         0.0000
   6693 WAT       -37.9320  -70.6660   -6.5830 O         1 <0>         0.0000
   6694 WAT       -37.9320  -70.6660   -6.3330 O         1 <0>         0.0000
   6695 WAT       -37.9320  -70.6660   -6.0830 O         1 <0>         0.0000
   6696 WAT       -37.9320  -70.6660   -5.8330 O         1 <0>         0.0000
   6697 WAT       -37.9320  -70.6660   -5.5830 O         1 <0>         0.0000
   6698 WAT       -37.9320  -70.6660   -5.3330 O         1 <0>         0.0000
   6699 WAT       -37.9320  -70.6660   -5.0830 O         1 <0>         0.0000
   6700 WAT       -37.9320  -70.6660   -4.8330 O         1 <0>         0.0000
   6701 WAT       -37.9320  -70.6660   -4.5830 O         1 <0>         0.0000
   6702 WAT       -37.9320  -70.6660   -4.3330 O         1 <0>         0.0000
   6703 WAT       -37.9320  -70.6660   -4.0830 O         1 <0>         0.0000
   6704 WAT       -37.9320  -70.6660   -3.8330 O         1 <0>         0.0000
   6705 WAT       -37.9320  -70.6660   -3.5830 O         1 <0>         0.0000
   6706 WAT       -37.9320  -70.6660   -3.3330 O         1 <0>         0.0000
   6707 WAT       -37.9320  -70.6660   -3.0830 O         1 <0>         0.0000
   6708 WAT       -37.9320  -70.6660   -2.8330 O         1 <0>         0.0000
   6709 WAT       -37.9320  -70.6660   -2.5830 O         1 <0>         0.0000
   6710 WAT       -37.9320  -70.6660   -2.3330 O         1 <0>         0.0000
   6711 WAT       -37.9320  -70.6660   -2.0830 O         1 <0>         0.0000
   6712 WAT       -37.9320  -70.6660   -1.8330 O         1 <0>         0.0000
   6713 WAT       -37.9320  -70.6660   -1.5830 O         1 <0>         0.0000
   6714 WAT       -37.9320  -70.6660   -1.3330 O         1 <0>         0.0000
   6715 WAT       -37.9320  -70.6660   -1.0830 O         1 <0>         0.0000
   6716 WAT       -37.9320  -70.6660   -0.8330 O         1 <0>         0.0000
   6717 WAT       -37.9320  -70.6660   -0.5830 O         1 <0>         0.0000
   6718 WAT       -37.9320  -70.6660   -0.3330 O         1 <0>         0.0000
   6719 WAT       -37.9320  -70.6660   -0.0830 O         1 <0>         0.0000
   6720 WAT       -37.9320  -70.4160   -9.8330 O         1 <0>         0.0000
   6721 WAT       -37.9320  -70.4160   -9.5830 O         1 <0>         0.0000
   6722 WAT       -37.9320  -70.4160   -9.3330 O         1 <0>         0.0000
   6723 WAT       -37.9320  -70.4160   -9.0830 O         1 <0>         0.0000
   6724 WAT       -37.9320  -70.4160   -8.8330 O         1 <0>         0.0000
   6725 WAT       -37.9320  -70.4160   -8.5830 O         1 <0>         0.0000
   6726 WAT       -37.9320  -70.4160   -8.3330 O         1 <0>         0.0000
   6727 WAT       -37.9320  -70.4160   -8.0830 O         1 <0>         0.0000
   6728 WAT       -37.9320  -70.4160   -7.8330 O         1 <0>         0.0000
   6729 WAT       -37.9320  -70.4160   -7.5830 O         1 <0>         0.0000
   6730 WAT       -37.9320  -70.4160   -7.3330 O         1 <0>         0.0000
   6731 WAT       -37.9320  -70.4160   -7.0830 O         1 <0>         0.0000
   6732 WAT       -37.9320  -70.4160   -6.8330 O         1 <0>         0.0000
   6733 WAT       -37.9320  -70.4160   -6.5830 O         1 <0>         0.0000
   6734 WAT       -37.9320  -70.4160   -6.3330 O         1 <0>         0.0000
   6735 WAT       -37.9320  -70.4160   -6.0830 O         1 <0>         0.0000
   6736 WAT       -37.9320  -70.4160   -5.8330 O         1 <0>         0.0000
   6737 WAT       -37.9320  -70.4160   -5.5830 O         1 <0>         0.0000
   6738 WAT       -37.9320  -70.4160   -5.3330 O         1 <0>         0.0000
   6739 WAT       -37.9320  -70.4160   -5.0830 O         1 <0>         0.0000
   6740 WAT       -37.9320  -70.4160   -4.8330 O         1 <0>         0.0000
   6741 WAT       -37.9320  -70.4160   -4.5830 O         1 <0>         0.0000
   6742 WAT       -37.9320  -70.4160   -4.3330 O         1 <0>         0.0000
   6743 WAT       -37.9320  -70.4160   -4.0830 O         1 <0>         0.0000
   6744 WAT       -37.9320  -70.4160   -3.8330 O         1 <0>         0.0000
   6745 WAT       -37.9320  -70.4160   -3.5830 O         1 <0>         0.0000
   6746 WAT       -37.9320  -70.4160   -3.3330 O         1 <0>         0.0000
   6747 WAT       -37.9320  -70.4160   -3.0830 O         1 <0>         0.0000
   6748 WAT       -37.9320  -70.4160   -2.8330 O         1 <0>         0.0000
   6749 WAT       -37.9320  -70.4160   -2.5830 O         1 <0>         0.0000
   6750 WAT       -37.9320  -70.4160   -2.3330 O         1 <0>         0.0000
   6751 WAT       -37.9320  -70.4160   -2.0830 O         1 <0>         0.0000
   6752 WAT       -37.9320  -70.4160   -1.8330 O         1 <0>         0.0000
   6753 WAT       -37.9320  -70.4160   -1.5830 O         1 <0>         0.0000
   6754 WAT       -37.9320  -70.4160   -1.3330 O         1 <0>         0.0000
   6755 WAT       -37.9320  -70.4160   -1.0830 O         1 <0>         0.0000
   6756 WAT       -37.9320  -70.4160   -0.8330 O         1 <0>         0.0000
   6757 WAT       -37.9320  -70.4160   -0.5830 O         1 <0>         0.0000
   6758 WAT       -37.9320  -70.4160   -0.3330 O         1 <0>         0.0000
   6759 WAT       -37.9320  -70.4160   -0.0830 O         1 <0>         0.0000
   6760 WAT       -37.9320  -70.1660   -9.8330 O         1 <0>         0.0000
   6761 WAT       -37.9320  -70.1660   -9.5830 O         1 <0>         0.0000
   6762 WAT       -37.9320  -70.1660   -9.3330 O         1 <0>         0.0000
   6763 WAT       -37.9320  -70.1660   -9.0830 O         1 <0>         0.0000
   6764 WAT       -37.9320  -70.1660   -8.8330 O         1 <0>         0.0000
   6765 WAT       -37.9320  -70.1660   -8.5830 O         1 <0>         0.0000
   6766 WAT       -37.9320  -70.1660   -8.3330 O         1 <0>         0.0000
   6767 WAT       -37.9320  -70.1660   -8.0830 O         1 <0>         0.0000
   6768 WAT       -37.9320  -70.1660   -7.8330 O         1 <0>         0.0000
   6769 WAT       -37.9320  -70.1660   -7.5830 O         1 <0>         0.0000
   6770 WAT       -37.9320  -70.1660   -7.3330 O         1 <0>         0.0000
   6771 WAT       -37.9320  -70.1660   -7.0830 O         1 <0>         0.0000
   6772 WAT       -37.9320  -70.1660   -6.8330 O         1 <0>         0.0000
   6773 WAT       -37.9320  -70.1660   -6.5830 O         1 <0>         0.0000
   6774 WAT       -37.9320  -70.1660   -6.3330 O         1 <0>         0.0000
   6775 WAT       -37.9320  -70.1660   -6.0830 O         1 <0>         0.0000
   6776 WAT       -37.9320  -70.1660   -5.8330 O         1 <0>         0.0000
   6777 WAT       -37.9320  -70.1660   -5.5830 O         1 <0>         0.0000
   6778 WAT       -37.9320  -70.1660   -5.3330 O         1 <0>         0.0000
   6779 WAT       -37.9320  -70.1660   -5.0830 O         1 <0>         0.0000
   6780 WAT       -37.9320  -70.1660   -4.8330 O         1 <0>         0.0000
   6781 WAT       -37.9320  -70.1660   -4.5830 O         1 <0>         0.0000
   6782 WAT       -37.9320  -70.1660   -4.3330 O         1 <0>         0.0000
   6783 WAT       -37.9320  -70.1660   -4.0830 O         1 <0>         0.0000
   6784 WAT       -37.9320  -70.1660   -3.8330 O         1 <0>         0.0000
   6785 WAT       -37.9320  -70.1660   -3.5830 O         1 <0>         0.0000
   6786 WAT       -37.9320  -70.1660   -3.3330 O         1 <0>         0.0000
   6787 WAT       -37.9320  -70.1660   -3.0830 O         1 <0>         0.0000
   6788 WAT       -37.9320  -70.1660   -2.8330 O         1 <0>         0.0000
   6789 WAT       -37.9320  -70.1660   -2.5830 O         1 <0>         0.0000
   6790 WAT       -37.9320  -70.1660   -2.3330 O         1 <0>         0.0000
   6791 WAT       -37.9320  -70.1660   -2.0830 O         1 <0>         0.0000
   6792 WAT       -37.9320  -70.1660   -1.8330 O         1 <0>         0.0000
   6793 WAT       -37.9320  -70.1660   -1.5830 O         1 <0>         0.0000
   6794 WAT       -37.9320  -70.1660   -1.3330 O         1 <0>         0.0000
   6795 WAT       -37.9320  -70.1660   -1.0830 O         1 <0>         0.0000
   6796 WAT       -37.9320  -70.1660   -0.8330 O         1 <0>         0.0000
   6797 WAT       -37.9320  -70.1660   -0.5830 O         1 <0>         0.0000
   6798 WAT       -37.9320  -70.1660   -0.3330 O         1 <0>         0.0000
   6799 WAT       -37.9320  -70.1660   -0.0830 O         1 <0>         0.0000
   6800 WAT       -37.9320  -69.9160   -9.8330 O         1 <0>         0.0000
   6801 WAT       -37.9320  -69.9160   -9.5830 O         1 <0>         0.0000
   6802 WAT       -37.9320  -69.9160   -9.3330 O         1 <0>         0.0000
   6803 WAT       -37.9320  -69.9160   -9.0830 O         1 <0>         0.0000
   6804 WAT       -37.9320  -69.9160   -8.8330 O         1 <0>         0.0000
   6805 WAT       -37.9320  -69.9160   -8.5830 O         1 <0>         0.0000
   6806 WAT       -37.9320  -69.9160   -8.3330 O         1 <0>         0.0000
   6807 WAT       -37.9320  -69.9160   -8.0830 O         1 <0>         0.0000
   6808 WAT       -37.9320  -69.9160   -7.8330 O         1 <0>         0.0000
   6809 WAT       -37.9320  -69.9160   -7.5830 O         1 <0>         0.0000
   6810 WAT       -37.9320  -69.9160   -7.3330 O         1 <0>         0.0000
   6811 WAT       -37.9320  -69.9160   -7.0830 O         1 <0>         0.0000
   6812 WAT       -37.9320  -69.9160   -6.8330 O         1 <0>         0.0000
   6813 WAT       -37.9320  -69.9160   -6.5830 O         1 <0>         0.0000
   6814 WAT       -37.9320  -69.9160   -6.3330 O         1 <0>         0.0000
   6815 WAT       -37.9320  -69.9160   -6.0830 O         1 <0>         0.0000
   6816 WAT       -37.9320  -69.9160   -5.8330 O         1 <0>         0.0000
   6817 WAT       -37.9320  -69.9160   -5.5830 O         1 <0>         0.0000
   6818 WAT       -37.9320  -69.9160   -5.3330 O         1 <0>         0.0000
   6819 WAT       -37.9320  -69.9160   -5.0830 O         1 <0>         0.0000
   6820 WAT       -37.9320  -69.9160   -4.8330 O         1 <0>         0.0000
   6821 WAT       -37.9320  -69.9160   -4.5830 O         1 <0>         0.0000
   6822 WAT       -37.9320  -69.9160   -4.3330 O         1 <0>         0.0000
   6823 WAT       -37.9320  -69.9160   -4.0830 O         1 <0>         0.0000
   6824 WAT       -37.9320  -69.9160   -3.8330 O         1 <0>         0.0000
   6825 WAT       -37.9320  -69.9160   -3.5830 O         1 <0>         0.0000
   6826 WAT       -37.9320  -69.9160   -3.3330 O         1 <0>         0.0000
   6827 WAT       -37.9320  -69.9160   -3.0830 O         1 <0>         0.0000
   6828 WAT       -37.9320  -69.9160   -2.8330 O         1 <0>         0.0000
   6829 WAT       -37.9320  -69.9160   -2.5830 O         1 <0>         0.0000
   6830 WAT       -37.9320  -69.9160   -2.3330 O         1 <0>         0.0000
   6831 WAT       -37.9320  -69.9160   -2.0830 O         1 <0>         0.0000
   6832 WAT       -37.9320  -69.9160   -1.8330 O         1 <0>         0.0000
   6833 WAT       -37.9320  -69.9160   -1.5830 O         1 <0>         0.0000
   6834 WAT       -37.9320  -69.9160   -1.3330 O         1 <0>         0.0000
   6835 WAT       -37.9320  -69.9160   -1.0830 O         1 <0>         0.0000
   6836 WAT       -37.9320  -69.9160   -0.8330 O         1 <0>         0.0000
   6837 WAT       -37.9320  -69.9160   -0.5830 O         1 <0>         0.0000
   6838 WAT       -37.9320  -69.9160   -0.3330 O         1 <0>         0.0000
   6839 WAT       -37.9320  -69.9160   -0.0830 O         1 <0>         0.0000
   6840 WAT       -37.9320  -69.6660   -9.8330 O         1 <0>         0.0000
   6841 WAT       -37.9320  -69.6660   -9.5830 O         1 <0>         0.0000
   6842 WAT       -37.9320  -69.6660   -9.3330 O         1 <0>         0.0000
   6843 WAT       -37.9320  -69.6660   -9.0830 O         1 <0>         0.0000
   6844 WAT       -37.9320  -69.6660   -8.8330 O         1 <0>         0.0000
   6845 WAT       -37.9320  -69.6660   -8.5830 O         1 <0>         0.0000
   6846 WAT       -37.9320  -69.6660   -8.3330 O         1 <0>         0.0000
   6847 WAT       -37.9320  -69.6660   -8.0830 O         1 <0>         0.0000
   6848 WAT       -37.9320  -69.6660   -7.8330 O         1 <0>         0.0000
   6849 WAT       -37.9320  -69.6660   -7.5830 O         1 <0>         0.0000
   6850 WAT       -37.9320  -69.6660   -7.3330 O         1 <0>         0.0000
   6851 WAT       -37.9320  -69.6660   -7.0830 O         1 <0>         0.0000
   6852 WAT       -37.9320  -69.6660   -6.8330 O         1 <0>         0.0000
   6853 WAT       -37.9320  -69.6660   -6.5830 O         1 <0>         0.0000
   6854 WAT       -37.9320  -69.6660   -6.3330 O         1 <0>         0.0000
   6855 WAT       -37.9320  -69.6660   -6.0830 O         1 <0>         0.0000
   6856 WAT       -37.9320  -69.6660   -5.8330 O         1 <0>         0.0000
   6857 WAT       -37.9320  -69.6660   -5.5830 O         1 <0>         0.0000
   6858 WAT       -37.9320  -69.6660   -5.3330 O         1 <0>         0.0000
   6859 WAT       -37.9320  -69.6660   -5.0830 O         1 <0>         0.0000
   6860 WAT       -37.9320  -69.6660   -4.8330 O         1 <0>         0.0000
   6861 WAT       -37.9320  -69.6660   -4.5830 O         1 <0>         0.0000
   6862 WAT       -37.9320  -69.6660   -4.3330 O         1 <0>         0.0000
   6863 WAT       -37.9320  -69.6660   -4.0830 O         1 <0>         0.0000
   6864 WAT       -37.9320  -69.6660   -3.8330 O         1 <0>         0.0000
   6865 WAT       -37.9320  -69.6660   -3.5830 O         1 <0>         0.0000
   6866 WAT       -37.9320  -69.6660   -3.3330 O         1 <0>         0.0000
   6867 WAT       -37.9320  -69.6660   -3.0830 O         1 <0>         0.0000
   6868 WAT       -37.9320  -69.6660   -2.8330 O         1 <0>         0.0000
   6869 WAT       -37.9320  -69.6660   -2.5830 O         1 <0>         0.0000
   6870 WAT       -37.9320  -69.6660   -2.3330 O         1 <0>         0.0000
   6871 WAT       -37.9320  -69.6660   -2.0830 O         1 <0>         0.0000
   6872 WAT       -37.9320  -69.6660   -1.8330 O         1 <0>         0.0000
   6873 WAT       -37.9320  -69.6660   -1.5830 O         1 <0>         0.0000
   6874 WAT       -37.9320  -69.6660   -1.3330 O         1 <0>         0.0000
   6875 WAT       -37.9320  -69.6660   -1.0830 O         1 <0>         0.0000
   6876 WAT       -37.9320  -69.6660   -0.8330 O         1 <0>         0.0000
   6877 WAT       -37.9320  -69.6660   -0.5830 O         1 <0>         0.0000
   6878 WAT       -37.9320  -69.6660   -0.3330 O         1 <0>         0.0000
   6879 WAT       -37.9320  -69.6660   -0.0830 O         1 <0>         0.0000
   6880 WAT       -37.9320  -69.4160   -9.8330 O         1 <0>         0.0000
   6881 WAT       -37.9320  -69.4160   -9.5830 O         1 <0>         0.0000
   6882 WAT       -37.9320  -69.4160   -9.3330 O         1 <0>         0.0000
   6883 WAT       -37.9320  -69.4160   -9.0830 O         1 <0>         0.0000
   6884 WAT       -37.9320  -69.4160   -8.8330 O         1 <0>         0.0000
   6885 WAT       -37.9320  -69.4160   -8.5830 O         1 <0>         0.0000
   6886 WAT       -37.9320  -69.4160   -8.3330 O         1 <0>         0.0000
   6887 WAT       -37.9320  -69.4160   -8.0830 O         1 <0>         0.0000
   6888 WAT       -37.9320  -69.4160   -7.8330 O         1 <0>         0.0000
   6889 WAT       -37.9320  -69.4160   -7.5830 O         1 <0>         0.0000
   6890 WAT       -37.9320  -69.4160   -7.3330 O         1 <0>         0.0000
   6891 WAT       -37.9320  -69.4160   -7.0830 O         1 <0>         0.0000
   6892 WAT       -37.9320  -69.4160   -6.8330 O         1 <0>         0.0000
   6893 WAT       -37.9320  -69.4160   -6.5830 O         1 <0>         0.0000
   6894 WAT       -37.9320  -69.4160   -6.3330 O         1 <0>         0.0000
   6895 WAT       -37.9320  -69.4160   -6.0830 O         1 <0>         0.0000
   6896 WAT       -37.9320  -69.4160   -5.8330 O         1 <0>         0.0000
   6897 WAT       -37.9320  -69.4160   -5.5830 O         1 <0>         0.0000
   6898 WAT       -37.9320  -69.4160   -5.3330 O         1 <0>         0.0000
   6899 WAT       -37.9320  -69.4160   -5.0830 O         1 <0>         0.0000
   6900 WAT       -37.9320  -69.4160   -4.8330 O         1 <0>         0.0000
   6901 WAT       -37.9320  -69.4160   -4.5830 O         1 <0>         0.0000
   6902 WAT       -37.9320  -69.4160   -4.3330 O         1 <0>         0.0000
   6903 WAT       -37.9320  -69.4160   -4.0830 O         1 <0>         0.0000
   6904 WAT       -37.9320  -69.4160   -3.8330 O         1 <0>         0.0000
   6905 WAT       -37.9320  -69.4160   -3.5830 O         1 <0>         0.0000
   6906 WAT       -37.9320  -69.4160   -3.3330 O         1 <0>         0.0000
   6907 WAT       -37.9320  -69.4160   -3.0830 O         1 <0>         0.0000
   6908 WAT       -37.9320  -69.4160   -2.8330 O         1 <0>         0.0000
   6909 WAT       -37.9320  -69.4160   -2.5830 O         1 <0>         0.0000
   6910 WAT       -37.9320  -69.4160   -2.3330 O         1 <0>         0.0000
   6911 WAT       -37.9320  -69.4160   -2.0830 O         1 <0>         0.0000
   6912 WAT       -37.9320  -69.4160   -1.8330 O         1 <0>         0.0000
   6913 WAT       -37.9320  -69.4160   -1.5830 O         1 <0>         0.0000
   6914 WAT       -37.9320  -69.4160   -1.3330 O         1 <0>         0.0000
   6915 WAT       -37.9320  -69.4160   -1.0830 O         1 <0>         0.0000
   6916 WAT       -37.9320  -69.4160   -0.8330 O         1 <0>         0.0000
   6917 WAT       -37.9320  -69.4160   -0.5830 O         1 <0>         0.0000
   6918 WAT       -37.9320  -69.4160   -0.3330 O         1 <0>         0.0000
   6919 WAT       -37.9320  -69.4160   -0.0830 O         1 <0>         0.0000
   6920 WAT       -37.9320  -69.1660   -9.8330 O         1 <0>         0.0000
   6921 WAT       -37.9320  -69.1660   -9.5830 O         1 <0>         0.0000
   6922 WAT       -37.9320  -69.1660   -9.3330 O         1 <0>         0.0000
   6923 WAT       -37.9320  -69.1660   -9.0830 O         1 <0>         0.0000
   6924 WAT       -37.9320  -69.1660   -8.8330 O         1 <0>         0.0000
   6925 WAT       -37.9320  -69.1660   -8.5830 O         1 <0>         0.0000
   6926 WAT       -37.9320  -69.1660   -8.3330 O         1 <0>         0.0000
   6927 WAT       -37.9320  -69.1660   -8.0830 O         1 <0>         0.0000
   6928 WAT       -37.9320  -69.1660   -7.8330 O         1 <0>         0.0000
   6929 WAT       -37.9320  -69.1660   -7.5830 O         1 <0>         0.0000
   6930 WAT       -37.9320  -69.1660   -7.3330 O         1 <0>         0.0000
   6931 WAT       -37.9320  -69.1660   -7.0830 O         1 <0>         0.0000
   6932 WAT       -37.9320  -69.1660   -6.8330 O         1 <0>         0.0000
   6933 WAT       -37.9320  -69.1660   -6.5830 O         1 <0>         0.0000
   6934 WAT       -37.9320  -69.1660   -6.3330 O         1 <0>         0.0000
   6935 WAT       -37.9320  -69.1660   -6.0830 O         1 <0>         0.0000
   6936 WAT       -37.9320  -69.1660   -5.8330 O         1 <0>         0.0000
   6937 WAT       -37.9320  -69.1660   -5.5830 O         1 <0>         0.0000
   6938 WAT       -37.9320  -69.1660   -5.3330 O         1 <0>         0.0000
   6939 WAT       -37.9320  -69.1660   -5.0830 O         1 <0>         0.0000
   6940 WAT       -37.9320  -69.1660   -4.8330 O         1 <0>         0.0000
   6941 WAT       -37.9320  -69.1660   -4.5830 O         1 <0>         0.0000
   6942 WAT       -37.9320  -69.1660   -4.3330 O         1 <0>         0.0000
   6943 WAT       -37.9320  -69.1660   -4.0830 O         1 <0>         0.0000
   6944 WAT       -37.9320  -69.1660   -3.8330 O         1 <0>         0.0000
   6945 WAT       -37.9320  -69.1660   -3.5830 O         1 <0>         0.0000
   6946 WAT       -37.9320  -69.1660   -3.3330 O         1 <0>         0.0000
   6947 WAT       -37.9320  -69.1660   -3.0830 O         1 <0>         0.0000
   6948 WAT       -37.9320  -69.1660   -2.8330 O         1 <0>         0.0000
   6949 WAT       -37.9320  -69.1660   -2.5830 O         1 <0>         0.0000
   6950 WAT       -37.9320  -69.1660   -2.3330 O         1 <0>         0.0000
   6951 WAT       -37.9320  -69.1660   -2.0830 O         1 <0>         0.0000
   6952 WAT       -37.9320  -69.1660   -1.8330 O         1 <0>         0.0000
   6953 WAT       -37.9320  -69.1660   -1.5830 O         1 <0>         0.0000
   6954 WAT       -37.9320  -69.1660   -1.3330 O         1 <0>         0.0000
   6955 WAT       -37.9320  -69.1660   -1.0830 O         1 <0>         0.0000
   6956 WAT       -37.9320  -69.1660   -0.8330 O         1 <0>         0.0000
   6957 WAT       -37.9320  -69.1660   -0.5830 O         1 <0>         0.0000
   6958 WAT       -37.9320  -69.1660   -0.3330 O         1 <0>         0.0000
   6959 WAT       -37.9320  -69.1660   -0.0830 O         1 <0>         0.0000
   6960 WAT       -37.9320  -68.9160   -9.8330 O         1 <0>         0.0000
   6961 WAT       -37.9320  -68.9160   -9.5830 O         1 <0>         0.0000
   6962 WAT       -37.9320  -68.9160   -9.3330 O         1 <0>         0.0000
   6963 WAT       -37.9320  -68.9160   -9.0830 O         1 <0>         0.0000
   6964 WAT       -37.9320  -68.9160   -8.8330 O         1 <0>         0.0000
   6965 WAT       -37.9320  -68.9160   -8.5830 O         1 <0>         0.0000
   6966 WAT       -37.9320  -68.9160   -8.3330 O         1 <0>         0.0000
   6967 WAT       -37.9320  -68.9160   -8.0830 O         1 <0>         0.0000
   6968 WAT       -37.9320  -68.9160   -7.8330 O         1 <0>         0.0000
   6969 WAT       -37.9320  -68.9160   -7.5830 O         1 <0>         0.0000
   6970 WAT       -37.9320  -68.9160   -7.3330 O         1 <0>         0.0000
   6971 WAT       -37.9320  -68.9160   -7.0830 O         1 <0>         0.0000
   6972 WAT       -37.9320  -68.9160   -6.8330 O         1 <0>         0.0000
   6973 WAT       -37.9320  -68.9160   -6.5830 O         1 <0>         0.0000
   6974 WAT       -37.9320  -68.9160   -6.3330 O         1 <0>         0.0000
   6975 WAT       -37.9320  -68.9160   -6.0830 O         1 <0>         0.0000
   6976 WAT       -37.9320  -68.9160   -5.8330 O         1 <0>         0.0000
   6977 WAT       -37.9320  -68.9160   -5.5830 O         1 <0>         0.0000
   6978 WAT       -37.9320  -68.9160   -5.3330 O         1 <0>         0.0000
   6979 WAT       -37.9320  -68.9160   -5.0830 O         1 <0>         0.0000
   6980 WAT       -37.9320  -68.9160   -4.8330 O         1 <0>         0.0000
   6981 WAT       -37.9320  -68.9160   -4.5830 O         1 <0>         0.0000
   6982 WAT       -37.9320  -68.9160   -4.3330 O         1 <0>         0.0000
   6983 WAT       -37.9320  -68.9160   -4.0830 O         1 <0>         0.0000
   6984 WAT       -37.9320  -68.9160   -3.8330 O         1 <0>         0.0000
   6985 WAT       -37.9320  -68.9160   -3.5830 O         1 <0>         0.0000
   6986 WAT       -37.9320  -68.9160   -3.3330 O         1 <0>         0.0000
   6987 WAT       -37.9320  -68.9160   -3.0830 O         1 <0>         0.0000
   6988 WAT       -37.9320  -68.9160   -2.8330 O         1 <0>         0.0000
   6989 WAT       -37.9320  -68.9160   -2.5830 O         1 <0>         0.0000
   6990 WAT       -37.9320  -68.9160   -2.3330 O         1 <0>         0.0000
   6991 WAT       -37.9320  -68.9160   -2.0830 O         1 <0>         0.0000
   6992 WAT       -37.9320  -68.9160   -1.8330 O         1 <0>         0.0000
   6993 WAT       -37.9320  -68.9160   -1.5830 O         1 <0>         0.0000
   6994 WAT       -37.9320  -68.9160   -1.3330 O         1 <0>         0.0000
   6995 WAT       -37.9320  -68.9160   -1.0830 O         1 <0>         0.0000
   6996 WAT       -37.9320  -68.9160   -0.8330 O         1 <0>         0.0000
   6997 WAT       -37.9320  -68.9160   -0.5830 O         1 <0>         0.0000
   6998 WAT       -37.9320  -68.9160   -0.3330 O         1 <0>         0.0000
   6999 WAT       -37.9320  -68.9160   -0.0830 O         1 <0>         0.0000
   7000 WAT       -37.6820  -77.4160   -9.8330 O         1 <0>         0.0000
   7001 WAT       -37.6820  -77.4160   -9.5830 O         1 <0>         0.0000
   7002 WAT       -37.6820  -77.4160   -9.3330 O         1 <0>         0.0000
   7003 WAT       -37.6820  -77.4160   -9.0830 O         1 <0>         0.0000
   7004 WAT       -37.6820  -77.4160   -8.8330 O         1 <0>         0.0000
   7005 WAT       -37.6820  -77.4160   -8.5830 O         1 <0>         0.0000
   7006 WAT       -37.6820  -77.4160   -8.3330 O         1 <0>         0.0000
   7007 WAT       -37.6820  -77.4160   -8.0830 O         1 <0>         0.0000
   7008 WAT       -37.6820  -77.4160   -7.8330 O         1 <0>         0.0000
   7009 WAT       -37.6820  -77.4160   -7.5830 O         1 <0>         0.0000
   7010 WAT       -37.6820  -77.4160   -7.3330 O         1 <0>         0.0000
   7011 WAT       -37.6820  -77.4160   -7.0830 O         1 <0>         0.0000
   7012 WAT       -37.6820  -77.4160   -6.8330 O         1 <0>         0.0000
   7013 WAT       -37.6820  -77.4160   -6.5830 O         1 <0>         0.0000
   7014 WAT       -37.6820  -77.4160   -6.3330 O         1 <0>         0.0000
   7015 WAT       -37.6820  -77.4160   -6.0830 O         1 <0>         0.0000
   7016 WAT       -37.6820  -77.4160   -5.8330 O         1 <0>         0.0000
   7017 WAT       -37.6820  -77.4160   -5.5830 O         1 <0>         0.0000
   7018 WAT       -37.6820  -77.4160   -5.3330 O         1 <0>         0.0000
   7019 WAT       -37.6820  -77.4160   -5.0830 O         1 <0>         0.0000
   7020 WAT       -37.6820  -77.4160   -4.8330 O         1 <0>         0.0000
   7021 WAT       -37.6820  -77.4160   -4.5830 O         1 <0>         0.0000
   7022 WAT       -37.6820  -77.4160   -4.3330 O         1 <0>         0.0000
   7023 WAT       -37.6820  -77.4160   -4.0830 O         1 <0>         0.0000
   7024 WAT       -37.6820  -77.4160   -3.8330 O         1 <0>         0.0000
   7025 WAT       -37.6820  -77.4160   -3.5830 O         1 <0>         0.0000
   7026 WAT       -37.6820  -77.4160   -3.3330 O         1 <0>         0.0000
   7027 WAT       -37.6820  -77.4160   -3.0830 O         1 <0>         0.0000
   7028 WAT       -37.6820  -77.4160   -2.8330 O         1 <0>         0.0000
   7029 WAT       -37.6820  -77.4160   -2.5830 O         1 <0>         0.0000
   7030 WAT       -37.6820  -77.4160   -2.3330 O         1 <0>         0.0000
   7031 WAT       -37.6820  -77.4160   -2.0830 O         1 <0>         0.0000
   7032 WAT       -37.6820  -77.4160   -1.8330 O         1 <0>         0.0000
   7033 WAT       -37.6820  -77.4160   -1.5830 O         1 <0>         0.0000
   7034 WAT       -37.6820  -77.4160   -1.3330 O         1 <0>         0.0000
   7035 WAT       -37.6820  -77.4160   -1.0830 O         1 <0>         0.0000
   7036 WAT       -37.6820  -77.4160   -0.8330 O         1 <0>         0.0000
   7037 WAT       -37.6820  -77.4160   -0.5830 O         1 <0>         0.0000
   7038 WAT       -37.6820  -77.4160   -0.3330 O         1 <0>         0.0000
   7039 WAT       -37.6820  -77.4160   -0.0830 O         1 <0>         0.0000
   7040 WAT       -37.6820  -77.1660   -9.8330 O         1 <0>         0.0000
   7041 WAT       -37.6820  -77.1660   -9.5830 O         1 <0>         0.0000
   7042 WAT       -37.6820  -77.1660   -9.3330 O         1 <0>         0.0000
   7043 WAT       -37.6820  -77.1660   -9.0830 O         1 <0>         0.0000
   7044 WAT       -37.6820  -77.1660   -8.8330 O         1 <0>         0.0000
   7045 WAT       -37.6820  -77.1660   -8.5830 O         1 <0>         0.0000
   7046 WAT       -37.6820  -77.1660   -8.3330 O         1 <0>         0.0000
   7047 WAT       -37.6820  -77.1660   -8.0830 O         1 <0>         0.0000
   7048 WAT       -37.6820  -77.1660   -7.8330 O         1 <0>         0.0000
   7049 WAT       -37.6820  -77.1660   -7.5830 O         1 <0>         0.0000
   7050 WAT       -37.6820  -77.1660   -7.3330 O         1 <0>         0.0000
   7051 WAT       -37.6820  -77.1660   -7.0830 O         1 <0>         0.0000
   7052 WAT       -37.6820  -77.1660   -6.8330 O         1 <0>         0.0000
   7053 WAT       -37.6820  -77.1660   -6.5830 O         1 <0>         0.0000
   7054 WAT       -37.6820  -77.1660   -6.3330 O         1 <0>         0.0000
   7055 WAT       -37.6820  -77.1660   -6.0830 O         1 <0>         0.0000
   7056 WAT       -37.6820  -77.1660   -5.8330 O         1 <0>         0.0000
   7057 WAT       -37.6820  -77.1660   -5.5830 O         1 <0>         0.0000
   7058 WAT       -37.6820  -77.1660   -5.3330 O         1 <0>         0.0000
   7059 WAT       -37.6820  -77.1660   -5.0830 O         1 <0>         0.0000
   7060 WAT       -37.6820  -77.1660   -4.8330 O         1 <0>         0.0000
   7061 WAT       -37.6820  -77.1660   -4.5830 O         1 <0>         0.0000
   7062 WAT       -37.6820  -77.1660   -4.3330 O         1 <0>         0.0000
   7063 WAT       -37.6820  -77.1660   -4.0830 O         1 <0>         0.0000
   7064 WAT       -37.6820  -77.1660   -3.8330 O         1 <0>         0.0000
   7065 WAT       -37.6820  -77.1660   -3.5830 O         1 <0>         0.0000
   7066 WAT       -37.6820  -77.1660   -3.3330 O         1 <0>         0.0000
   7067 WAT       -37.6820  -77.1660   -3.0830 O         1 <0>         0.0000
   7068 WAT       -37.6820  -77.1660   -2.8330 O         1 <0>         0.0000
   7069 WAT       -37.6820  -77.1660   -2.5830 O         1 <0>         0.0000
   7070 WAT       -37.6820  -77.1660   -2.3330 O         1 <0>         0.0000
   7071 WAT       -37.6820  -77.1660   -2.0830 O         1 <0>         0.0000
   7072 WAT       -37.6820  -77.1660   -1.8330 O         1 <0>         0.0000
   7073 WAT       -37.6820  -77.1660   -1.5830 O         1 <0>         0.0000
   7074 WAT       -37.6820  -77.1660   -1.3330 O         1 <0>         0.0000
   7075 WAT       -37.6820  -77.1660   -1.0830 O         1 <0>         0.0000
   7076 WAT       -37.6820  -77.1660   -0.8330 O         1 <0>         0.0000
   7077 WAT       -37.6820  -77.1660   -0.5830 O         1 <0>         0.0000
   7078 WAT       -37.6820  -77.1660   -0.3330 O         1 <0>         0.0000
   7079 WAT       -37.6820  -77.1660   -0.0830 O         1 <0>         0.0000
   7080 WAT       -37.6820  -76.9160   -9.8330 O         1 <0>         0.0000
   7081 WAT       -37.6820  -76.9160   -9.5830 O         1 <0>         0.0000
   7082 WAT       -37.6820  -76.9160   -9.3330 O         1 <0>         0.0000
   7083 WAT       -37.6820  -76.9160   -9.0830 O         1 <0>         0.0000
   7084 WAT       -37.6820  -76.9160   -8.8330 O         1 <0>         0.0000
   7085 WAT       -37.6820  -76.9160   -8.5830 O         1 <0>         0.0000
   7086 WAT       -37.6820  -76.9160   -8.3330 O         1 <0>         0.0000
   7087 WAT       -37.6820  -76.9160   -8.0830 O         1 <0>         0.0000
   7088 WAT       -37.6820  -76.9160   -7.8330 O         1 <0>         0.0000
   7089 WAT       -37.6820  -76.9160   -7.5830 O         1 <0>         0.0000
   7090 WAT       -37.6820  -76.9160   -7.3330 O         1 <0>         0.0000
   7091 WAT       -37.6820  -76.9160   -7.0830 O         1 <0>         0.0000
   7092 WAT       -37.6820  -76.9160   -6.8330 O         1 <0>         0.0000
   7093 WAT       -37.6820  -76.9160   -6.5830 O         1 <0>         0.0000
   7094 WAT       -37.6820  -76.9160   -6.3330 O         1 <0>         0.0000
   7095 WAT       -37.6820  -76.9160   -6.0830 O         1 <0>         0.0000
   7096 WAT       -37.6820  -76.9160   -5.8330 O         1 <0>         0.0000
   7097 WAT       -37.6820  -76.9160   -5.5830 O         1 <0>         0.0000
   7098 WAT       -37.6820  -76.9160   -5.3330 O         1 <0>         0.0000
   7099 WAT       -37.6820  -76.9160   -5.0830 O         1 <0>         0.0000
   7100 WAT       -37.6820  -76.9160   -4.8330 O         1 <0>         0.0000
   7101 WAT       -37.6820  -76.9160   -4.5830 O         1 <0>         0.0000
   7102 WAT       -37.6820  -76.9160   -4.3330 O         1 <0>         0.0000
   7103 WAT       -37.6820  -76.9160   -4.0830 O         1 <0>         0.0000
   7104 WAT       -37.6820  -76.9160   -3.8330 O         1 <0>         0.0000
   7105 WAT       -37.6820  -76.9160   -3.5830 O         1 <0>         0.0000
   7106 WAT       -37.6820  -76.9160   -3.3330 O         1 <0>         0.0000
   7107 WAT       -37.6820  -76.9160   -3.0830 O         1 <0>         0.0000
   7108 WAT       -37.6820  -76.9160   -2.8330 O         1 <0>         0.0000
   7109 WAT       -37.6820  -76.9160   -2.5830 O         1 <0>         0.0000
   7110 WAT       -37.6820  -76.9160   -2.3330 O         1 <0>         0.0000
   7111 WAT       -37.6820  -76.9160   -2.0830 O         1 <0>         0.0000
   7112 WAT       -37.6820  -76.9160   -1.8330 O         1 <0>         0.0000
   7113 WAT       -37.6820  -76.9160   -1.5830 O         1 <0>         0.0000
   7114 WAT       -37.6820  -76.9160   -1.3330 O         1 <0>         0.0000
   7115 WAT       -37.6820  -76.9160   -1.0830 O         1 <0>         0.0000
   7116 WAT       -37.6820  -76.9160   -0.8330 O         1 <0>         0.0000
   7117 WAT       -37.6820  -76.9160   -0.5830 O         1 <0>         0.0000
   7118 WAT       -37.6820  -76.9160   -0.3330 O         1 <0>         0.0000
   7119 WAT       -37.6820  -76.9160   -0.0830 O         1 <0>         0.0000
   7120 WAT       -37.6820  -76.6660   -9.8330 O         1 <0>         0.0000
   7121 WAT       -37.6820  -76.6660   -9.5830 O         1 <0>         0.0000
   7122 WAT       -37.6820  -76.6660   -9.3330 O         1 <0>         0.0000
   7123 WAT       -37.6820  -76.6660   -9.0830 O         1 <0>         0.0000
   7124 WAT       -37.6820  -76.6660   -8.8330 O         1 <0>         0.0000
   7125 WAT       -37.6820  -76.6660   -8.5830 O         1 <0>         0.0000
   7126 WAT       -37.6820  -76.6660   -8.3330 O         1 <0>         0.0000
   7127 WAT       -37.6820  -76.6660   -8.0830 O         1 <0>         0.0000
   7128 WAT       -37.6820  -76.6660   -7.8330 O         1 <0>         0.0000
   7129 WAT       -37.6820  -76.6660   -7.5830 O         1 <0>         0.0000
   7130 WAT       -37.6820  -76.6660   -7.3330 O         1 <0>         0.0000
   7131 WAT       -37.6820  -76.6660   -7.0830 O         1 <0>         0.0000
   7132 WAT       -37.6820  -76.6660   -6.8330 O         1 <0>         0.0000
   7133 WAT       -37.6820  -76.6660   -6.5830 O         1 <0>         0.0000
   7134 WAT       -37.6820  -76.6660   -6.3330 O         1 <0>         0.0000
   7135 WAT       -37.6820  -76.6660   -6.0830 O         1 <0>         0.0000
   7136 WAT       -37.6820  -76.6660   -5.8330 O         1 <0>         0.0000
   7137 WAT       -37.6820  -76.6660   -5.5830 O         1 <0>         0.0000
   7138 WAT       -37.6820  -76.6660   -5.3330 O         1 <0>         0.0000
   7139 WAT       -37.6820  -76.6660   -5.0830 O         1 <0>         0.0000
   7140 WAT       -37.6820  -76.6660   -4.8330 O         1 <0>         0.0000
   7141 WAT       -37.6820  -76.6660   -4.5830 O         1 <0>         0.0000
   7142 WAT       -37.6820  -76.6660   -4.3330 O         1 <0>         0.0000
   7143 WAT       -37.6820  -76.6660   -4.0830 O         1 <0>         0.0000
   7144 WAT       -37.6820  -76.6660   -3.8330 O         1 <0>         0.0000
   7145 WAT       -37.6820  -76.6660   -3.5830 O         1 <0>         0.0000
   7146 WAT       -37.6820  -76.6660   -3.3330 O         1 <0>         0.0000
   7147 WAT       -37.6820  -76.6660   -3.0830 O         1 <0>         0.0000
   7148 WAT       -37.6820  -76.6660   -2.8330 O         1 <0>         0.0000
   7149 WAT       -37.6820  -76.6660   -2.5830 O         1 <0>         0.0000
   7150 WAT       -37.6820  -76.6660   -2.3330 O         1 <0>         0.0000
   7151 WAT       -37.6820  -76.6660   -2.0830 O         1 <0>         0.0000
   7152 WAT       -37.6820  -76.6660   -1.8330 O         1 <0>         0.0000
   7153 WAT       -37.6820  -76.6660   -1.5830 O         1 <0>         0.0000
   7154 WAT       -37.6820  -76.6660   -1.3330 O         1 <0>         0.0000
   7155 WAT       -37.6820  -76.6660   -1.0830 O         1 <0>         0.0000
   7156 WAT       -37.6820  -76.6660   -0.8330 O         1 <0>         0.0000
   7157 WAT       -37.6820  -76.6660   -0.5830 O         1 <0>         0.0000
   7158 WAT       -37.6820  -76.6660   -0.3330 O         1 <0>         0.0000
   7159 WAT       -37.6820  -76.6660   -0.0830 O         1 <0>         0.0000
   7160 WAT       -37.6820  -76.4160   -9.8330 O         1 <0>         0.0000
   7161 WAT       -37.6820  -76.4160   -9.5830 O         1 <0>         0.0000
   7162 WAT       -37.6820  -76.4160   -9.3330 O         1 <0>         0.0000
   7163 WAT       -37.6820  -76.4160   -9.0830 O         1 <0>         0.0000
   7164 WAT       -37.6820  -76.4160   -8.8330 O         1 <0>         0.0000
   7165 WAT       -37.6820  -76.4160   -8.5830 O         1 <0>         0.0000
   7166 WAT       -37.6820  -76.4160   -8.3330 O         1 <0>         0.0000
   7167 WAT       -37.6820  -76.4160   -8.0830 O         1 <0>         0.0000
   7168 WAT       -37.6820  -76.4160   -7.8330 O         1 <0>         0.0000
   7169 WAT       -37.6820  -76.4160   -7.5830 O         1 <0>         0.0000
   7170 WAT       -37.6820  -76.4160   -7.3330 O         1 <0>         0.0000
   7171 WAT       -37.6820  -76.4160   -7.0830 O         1 <0>         0.0000
   7172 WAT       -37.6820  -76.4160   -6.8330 O         1 <0>         0.0000
   7173 WAT       -37.6820  -76.4160   -6.5830 O         1 <0>         0.0000
   7174 WAT       -37.6820  -76.4160   -6.3330 O         1 <0>         0.0000
   7175 WAT       -37.6820  -76.4160   -6.0830 O         1 <0>         0.0000
   7176 WAT       -37.6820  -76.4160   -5.8330 O         1 <0>         0.0000
   7177 WAT       -37.6820  -76.4160   -5.5830 O         1 <0>         0.0000
   7178 WAT       -37.6820  -76.4160   -5.3330 O         1 <0>         0.0000
   7179 WAT       -37.6820  -76.4160   -5.0830 O         1 <0>         0.0000
   7180 WAT       -37.6820  -76.4160   -4.8330 O         1 <0>         0.0000
   7181 WAT       -37.6820  -76.4160   -4.5830 O         1 <0>         0.0000
   7182 WAT       -37.6820  -76.4160   -4.3330 O         1 <0>         0.0000
   7183 WAT       -37.6820  -76.4160   -4.0830 O         1 <0>         0.0000
   7184 WAT       -37.6820  -76.4160   -3.8330 O         1 <0>         0.0000
   7185 WAT       -37.6820  -76.4160   -3.5830 O         1 <0>         0.0000
   7186 WAT       -37.6820  -76.4160   -3.3330 O         1 <0>         0.0000
   7187 WAT       -37.6820  -76.4160   -3.0830 O         1 <0>         0.0000
   7188 WAT       -37.6820  -76.4160   -2.8330 O         1 <0>         0.0000
   7189 WAT       -37.6820  -76.4160   -2.5830 O         1 <0>         0.0000
   7190 WAT       -37.6820  -76.4160   -2.3330 O         1 <0>         0.0000
   7191 WAT       -37.6820  -76.4160   -2.0830 O         1 <0>         0.0000
   7192 WAT       -37.6820  -76.4160   -1.8330 O         1 <0>         0.0000
   7193 WAT       -37.6820  -76.4160   -1.5830 O         1 <0>         0.0000
   7194 WAT       -37.6820  -76.4160   -1.3330 O         1 <0>         0.0000
   7195 WAT       -37.6820  -76.4160   -1.0830 O         1 <0>         0.0000
   7196 WAT       -37.6820  -76.4160   -0.8330 O         1 <0>         0.0000
   7197 WAT       -37.6820  -76.4160   -0.5830 O         1 <0>         0.0000
   7198 WAT       -37.6820  -76.4160   -0.3330 O         1 <0>         0.0000
   7199 WAT       -37.6820  -76.4160   -0.0830 O         1 <0>         0.0000
   7200 WAT       -37.6820  -76.1660   -9.8330 O         1 <0>         0.0000
   7201 WAT       -37.6820  -76.1660   -9.5830 O         1 <0>         0.0000
   7202 WAT       -37.6820  -76.1660   -9.3330 O         1 <0>         0.0000
   7203 WAT       -37.6820  -76.1660   -9.0830 O         1 <0>         0.0000
   7204 WAT       -37.6820  -76.1660   -8.8330 O         1 <0>         0.0000
   7205 WAT       -37.6820  -76.1660   -8.5830 O         1 <0>         0.0000
   7206 WAT       -37.6820  -76.1660   -8.3330 O         1 <0>         0.0000
   7207 WAT       -37.6820  -76.1660   -8.0830 O         1 <0>         0.0000
   7208 WAT       -37.6820  -76.1660   -7.8330 O         1 <0>         0.0000
   7209 WAT       -37.6820  -76.1660   -7.5830 O         1 <0>         0.0000
   7210 WAT       -37.6820  -76.1660   -7.3330 O         1 <0>         0.0000
   7211 WAT       -37.6820  -76.1660   -7.0830 O         1 <0>         0.0000
   7212 WAT       -37.6820  -76.1660   -6.8330 O         1 <0>         0.0000
   7213 WAT       -37.6820  -76.1660   -6.5830 O         1 <0>         0.0000
   7214 WAT       -37.6820  -76.1660   -6.3330 O         1 <0>         0.0000
   7215 WAT       -37.6820  -76.1660   -6.0830 O         1 <0>         0.0000
   7216 WAT       -37.6820  -76.1660   -5.8330 O         1 <0>         0.0000
   7217 WAT       -37.6820  -76.1660   -5.5830 O         1 <0>         0.0000
   7218 WAT       -37.6820  -76.1660   -5.3330 O         1 <0>         0.0000
   7219 WAT       -37.6820  -76.1660   -5.0830 O         1 <0>         0.0000
   7220 WAT       -37.6820  -76.1660   -4.8330 O         1 <0>         0.0000
   7221 WAT       -37.6820  -76.1660   -4.5830 O         1 <0>         0.0000
   7222 WAT       -37.6820  -76.1660   -4.3330 O         1 <0>         0.0000
   7223 WAT       -37.6820  -76.1660   -4.0830 O         1 <0>         0.0000
   7224 WAT       -37.6820  -76.1660   -3.8330 O         1 <0>         0.0000
   7225 WAT       -37.6820  -76.1660   -3.5830 O         1 <0>         0.0000
   7226 WAT       -37.6820  -76.1660   -3.3330 O         1 <0>         0.0000
   7227 WAT       -37.6820  -76.1660   -3.0830 O         1 <0>         0.0000
   7228 WAT       -37.6820  -76.1660   -2.8330 O         1 <0>         0.0000
   7229 WAT       -37.6820  -76.1660   -2.5830 O         1 <0>         0.0000
   7230 WAT       -37.6820  -76.1660   -2.3330 O         1 <0>         0.0000
   7231 WAT       -37.6820  -76.1660   -2.0830 O         1 <0>         0.0000
   7232 WAT       -37.6820  -76.1660   -1.8330 O         1 <0>         0.0000
   7233 WAT       -37.6820  -76.1660   -1.5830 O         1 <0>         0.0000
   7234 WAT       -37.6820  -76.1660   -1.3330 O         1 <0>         0.0000
   7235 WAT       -37.6820  -76.1660   -1.0830 O         1 <0>         0.0000
   7236 WAT       -37.6820  -76.1660   -0.8330 O         1 <0>         0.0000
   7237 WAT       -37.6820  -76.1660   -0.5830 O         1 <0>         0.0000
   7238 WAT       -37.6820  -76.1660   -0.3330 O         1 <0>         0.0000
   7239 WAT       -37.6820  -76.1660   -0.0830 O         1 <0>         0.0000
   7240 WAT       -37.6820  -75.9160   -9.8330 O         1 <0>         0.0000
   7241 WAT       -37.6820  -75.9160   -9.5830 O         1 <0>         0.0000
   7242 WAT       -37.6820  -75.9160   -9.3330 O         1 <0>         0.0000
   7243 WAT       -37.6820  -75.9160   -9.0830 O         1 <0>         0.0000
   7244 WAT       -37.6820  -75.9160   -8.8330 O         1 <0>         0.0000
   7245 WAT       -37.6820  -75.9160   -8.5830 O         1 <0>         0.0000
   7246 WAT       -37.6820  -75.9160   -8.3330 O         1 <0>         0.0000
   7247 WAT       -37.6820  -75.9160   -8.0830 O         1 <0>         0.0000
   7248 WAT       -37.6820  -75.9160   -7.8330 O         1 <0>         0.0000
   7249 WAT       -37.6820  -75.9160   -7.5830 O         1 <0>         0.0000
   7250 WAT       -37.6820  -75.9160   -7.3330 O         1 <0>         0.0000
   7251 WAT       -37.6820  -75.9160   -7.0830 O         1 <0>         0.0000
   7252 WAT       -37.6820  -75.9160   -6.8330 O         1 <0>         0.0000
   7253 WAT       -37.6820  -75.9160   -6.5830 O         1 <0>         0.0000
   7254 WAT       -37.6820  -75.9160   -6.3330 O         1 <0>         0.0000
   7255 WAT       -37.6820  -75.9160   -6.0830 O         1 <0>         0.0000
   7256 WAT       -37.6820  -75.9160   -5.8330 O         1 <0>         0.0000
   7257 WAT       -37.6820  -75.9160   -5.5830 O         1 <0>         0.0000
   7258 WAT       -37.6820  -75.9160   -5.3330 O         1 <0>         0.0000
   7259 WAT       -37.6820  -75.9160   -5.0830 O         1 <0>         0.0000
   7260 WAT       -37.6820  -75.9160   -4.8330 O         1 <0>         0.0000
   7261 WAT       -37.6820  -75.9160   -4.5830 O         1 <0>         0.0000
   7262 WAT       -37.6820  -75.9160   -4.3330 O         1 <0>         0.0000
   7263 WAT       -37.6820  -75.9160   -4.0830 O         1 <0>         0.0000
   7264 WAT       -37.6820  -75.9160   -3.8330 O         1 <0>         0.0000
   7265 WAT       -37.6820  -75.9160   -3.5830 O         1 <0>         0.0000
   7266 WAT       -37.6820  -75.9160   -3.3330 O         1 <0>         0.0000
   7267 WAT       -37.6820  -75.9160   -3.0830 O         1 <0>         0.0000
   7268 WAT       -37.6820  -75.9160   -2.8330 O         1 <0>         0.0000
   7269 WAT       -37.6820  -75.9160   -2.5830 O         1 <0>         0.0000
   7270 WAT       -37.6820  -75.9160   -2.3330 O         1 <0>         0.0000
   7271 WAT       -37.6820  -75.9160   -2.0830 O         1 <0>         0.0000
   7272 WAT       -37.6820  -75.9160   -1.8330 O         1 <0>         0.0000
   7273 WAT       -37.6820  -75.9160   -1.5830 O         1 <0>         0.0000
   7274 WAT       -37.6820  -75.9160   -1.3330 O         1 <0>         0.0000
   7275 WAT       -37.6820  -75.9160   -1.0830 O         1 <0>         0.0000
   7276 WAT       -37.6820  -75.9160   -0.8330 O         1 <0>         0.0000
   7277 WAT       -37.6820  -75.9160   -0.5830 O         1 <0>         0.0000
   7278 WAT       -37.6820  -75.9160   -0.3330 O         1 <0>         0.0000
   7279 WAT       -37.6820  -75.9160   -0.0830 O         1 <0>         0.0000
   7280 WAT       -37.6820  -75.6660   -9.8330 O         1 <0>         0.0000
   7281 WAT       -37.6820  -75.6660   -9.5830 O         1 <0>         0.0000
   7282 WAT       -37.6820  -75.6660   -9.3330 O         1 <0>         0.0000
   7283 WAT       -37.6820  -75.6660   -9.0830 O         1 <0>         0.0000
   7284 WAT       -37.6820  -75.6660   -8.8330 O         1 <0>         0.0000
   7285 WAT       -37.6820  -75.6660   -8.5830 O         1 <0>         0.0000
   7286 WAT       -37.6820  -75.6660   -8.3330 O         1 <0>         0.0000
   7287 WAT       -37.6820  -75.6660   -8.0830 O         1 <0>         0.0000
   7288 WAT       -37.6820  -75.6660   -7.8330 O         1 <0>         0.0000
   7289 WAT       -37.6820  -75.6660   -7.5830 O         1 <0>         0.0000
   7290 WAT       -37.6820  -75.6660   -7.3330 O         1 <0>         0.0000
   7291 WAT       -37.6820  -75.6660   -7.0830 O         1 <0>         0.0000
   7292 WAT       -37.6820  -75.6660   -6.8330 O         1 <0>         0.0000
   7293 WAT       -37.6820  -75.6660   -6.5830 O         1 <0>         0.0000
   7294 WAT       -37.6820  -75.6660   -6.3330 O         1 <0>         0.0000
   7295 WAT       -37.6820  -75.6660   -6.0830 O         1 <0>         0.0000
   7296 WAT       -37.6820  -75.6660   -5.8330 O         1 <0>         0.0000
   7297 WAT       -37.6820  -75.6660   -5.5830 O         1 <0>         0.0000
   7298 WAT       -37.6820  -75.6660   -5.3330 O         1 <0>         0.0000
   7299 WAT       -37.6820  -75.6660   -5.0830 O         1 <0>         0.0000
   7300 WAT       -37.6820  -75.6660   -4.8330 O         1 <0>         0.0000
   7301 WAT       -37.6820  -75.6660   -4.5830 O         1 <0>         0.0000
   7302 WAT       -37.6820  -75.6660   -4.3330 O         1 <0>         0.0000
   7303 WAT       -37.6820  -75.6660   -4.0830 O         1 <0>         0.0000
   7304 WAT       -37.6820  -75.6660   -3.8330 O         1 <0>         0.0000
   7305 WAT       -37.6820  -75.6660   -3.5830 O         1 <0>         0.0000
   7306 WAT       -37.6820  -75.6660   -3.3330 O         1 <0>         0.0000
   7307 WAT       -37.6820  -75.6660   -3.0830 O         1 <0>         0.0000
   7308 WAT       -37.6820  -75.6660   -2.8330 O         1 <0>         0.0000
   7309 WAT       -37.6820  -75.6660   -2.5830 O         1 <0>         0.0000
   7310 WAT       -37.6820  -75.6660   -2.3330 O         1 <0>         0.0000
   7311 WAT       -37.6820  -75.6660   -2.0830 O         1 <0>         0.0000
   7312 WAT       -37.6820  -75.6660   -1.8330 O         1 <0>         0.0000
   7313 WAT       -37.6820  -75.6660   -1.5830 O         1 <0>         0.0000
   7314 WAT       -37.6820  -75.6660   -1.3330 O         1 <0>         0.0000
   7315 WAT       -37.6820  -75.6660   -1.0830 O         1 <0>         0.0000
   7316 WAT       -37.6820  -75.6660   -0.8330 O         1 <0>         0.0000
   7317 WAT       -37.6820  -75.6660   -0.5830 O         1 <0>         0.0000
   7318 WAT       -37.6820  -75.6660   -0.3330 O         1 <0>         0.0000
   7319 WAT       -37.6820  -75.6660   -0.0830 O         1 <0>         0.0000
   7320 WAT       -37.6820  -75.4160   -9.8330 O         1 <0>         0.0000
   7321 WAT       -37.6820  -75.4160   -9.5830 O         1 <0>         0.0000
   7322 WAT       -37.6820  -75.4160   -9.3330 O         1 <0>         0.0000
   7323 WAT       -37.6820  -75.4160   -9.0830 O         1 <0>         0.0000
   7324 WAT       -37.6820  -75.4160   -8.8330 O         1 <0>         0.0000
   7325 WAT       -37.6820  -75.4160   -8.5830 O         1 <0>         0.0000
   7326 WAT       -37.6820  -75.4160   -8.3330 O         1 <0>         0.0000
   7327 WAT       -37.6820  -75.4160   -8.0830 O         1 <0>         0.0000
   7328 WAT       -37.6820  -75.4160   -7.8330 O         1 <0>         0.0000
   7329 WAT       -37.6820  -75.4160   -7.5830 O         1 <0>         0.0000
   7330 WAT       -37.6820  -75.4160   -7.3330 O         1 <0>         0.0000
   7331 WAT       -37.6820  -75.4160   -7.0830 O         1 <0>         0.0000
   7332 WAT       -37.6820  -75.4160   -6.8330 O         1 <0>         0.0000
   7333 WAT       -37.6820  -75.4160   -6.5830 O         1 <0>         0.0000
   7334 WAT       -37.6820  -75.4160   -6.3330 O         1 <0>         0.0000
   7335 WAT       -37.6820  -75.4160   -6.0830 O         1 <0>         0.0000
   7336 WAT       -37.6820  -75.4160   -5.8330 O         1 <0>         0.0000
   7337 WAT       -37.6820  -75.4160   -5.5830 O         1 <0>         0.0000
   7338 WAT       -37.6820  -75.4160   -5.3330 O         1 <0>         0.0000
   7339 WAT       -37.6820  -75.4160   -5.0830 O         1 <0>         0.0000
   7340 WAT       -37.6820  -75.4160   -4.8330 O         1 <0>         0.0000
   7341 WAT       -37.6820  -75.4160   -4.5830 O         1 <0>         0.0000
   7342 WAT       -37.6820  -75.4160   -4.3330 O         1 <0>         0.0000
   7343 WAT       -37.6820  -75.4160   -4.0830 O         1 <0>         0.0000
   7344 WAT       -37.6820  -75.4160   -3.8330 O         1 <0>         0.0000
   7345 WAT       -37.6820  -75.4160   -3.5830 O         1 <0>         0.0000
   7346 WAT       -37.6820  -75.4160   -3.3330 O         1 <0>         0.0000
   7347 WAT       -37.6820  -75.4160   -3.0830 O         1 <0>         0.0000
   7348 WAT       -37.6820  -75.4160   -2.8330 O         1 <0>         0.0000
   7349 WAT       -37.6820  -75.4160   -2.5830 O         1 <0>         0.0000
   7350 WAT       -37.6820  -75.4160   -2.3330 O         1 <0>         0.0000
   7351 WAT       -37.6820  -75.4160   -2.0830 O         1 <0>         0.0000
   7352 WAT       -37.6820  -75.4160   -1.8330 O         1 <0>         0.0000
   7353 WAT       -37.6820  -75.4160   -1.5830 O         1 <0>         0.0000
   7354 WAT       -37.6820  -75.4160   -1.3330 O         1 <0>         0.0000
   7355 WAT       -37.6820  -75.4160   -1.0830 O         1 <0>         0.0000
   7356 WAT       -37.6820  -75.4160   -0.8330 O         1 <0>         0.0000
   7357 WAT       -37.6820  -75.4160   -0.5830 O         1 <0>         0.0000
   7358 WAT       -37.6820  -75.4160   -0.3330 O         1 <0>         0.0000
   7359 WAT       -37.6820  -75.4160   -0.0830 O         1 <0>         0.0000
   7360 WAT       -37.6820  -75.1660   -9.8330 O         1 <0>         0.0000
   7361 WAT       -37.6820  -75.1660   -9.5830 O         1 <0>         0.0000
   7362 WAT       -37.6820  -75.1660   -9.3330 O         1 <0>         0.0000
   7363 WAT       -37.6820  -75.1660   -9.0830 O         1 <0>         0.0000
   7364 WAT       -37.6820  -75.1660   -8.8330 O         1 <0>         0.0000
   7365 WAT       -37.6820  -75.1660   -8.5830 O         1 <0>         0.0000
   7366 WAT       -37.6820  -75.1660   -8.3330 O         1 <0>         0.0000
   7367 WAT       -37.6820  -75.1660   -8.0830 O         1 <0>         0.0000
   7368 WAT       -37.6820  -75.1660   -7.8330 O         1 <0>         0.0000
   7369 WAT       -37.6820  -75.1660   -7.5830 O         1 <0>         0.0000
   7370 WAT       -37.6820  -75.1660   -7.3330 O         1 <0>         0.0000
   7371 WAT       -37.6820  -75.1660   -7.0830 O         1 <0>         0.0000
   7372 WAT       -37.6820  -75.1660   -6.8330 O         1 <0>         0.0000
   7373 WAT       -37.6820  -75.1660   -6.5830 O         1 <0>         0.0000
   7374 WAT       -37.6820  -75.1660   -6.3330 O         1 <0>         0.0000
   7375 WAT       -37.6820  -75.1660   -6.0830 O         1 <0>         0.0000
   7376 WAT       -37.6820  -75.1660   -5.8330 O         1 <0>         0.0000
   7377 WAT       -37.6820  -75.1660   -5.5830 O         1 <0>         0.0000
   7378 WAT       -37.6820  -75.1660   -5.3330 O         1 <0>         0.0000
   7379 WAT       -37.6820  -75.1660   -5.0830 O         1 <0>         0.0000
   7380 WAT       -37.6820  -75.1660   -4.8330 O         1 <0>         0.0000
   7381 WAT       -37.6820  -75.1660   -4.5830 O         1 <0>         0.0000
   7382 WAT       -37.6820  -75.1660   -4.3330 O         1 <0>         0.0000
   7383 WAT       -37.6820  -75.1660   -4.0830 O         1 <0>         0.0000
   7384 WAT       -37.6820  -75.1660   -3.8330 O         1 <0>         0.0000
   7385 WAT       -37.6820  -75.1660   -3.5830 O         1 <0>         0.0000
   7386 WAT       -37.6820  -75.1660   -3.3330 O         1 <0>         0.0000
   7387 WAT       -37.6820  -75.1660   -3.0830 O         1 <0>         0.0000
   7388 WAT       -37.6820  -75.1660   -2.8330 O         1 <0>         0.0000
   7389 WAT       -37.6820  -75.1660   -2.5830 O         1 <0>         0.0000
   7390 WAT       -37.6820  -75.1660   -2.3330 O         1 <0>         0.0000
   7391 WAT       -37.6820  -75.1660   -2.0830 O         1 <0>         0.0000
   7392 WAT       -37.6820  -75.1660   -1.8330 O         1 <0>         0.0000
   7393 WAT       -37.6820  -75.1660   -1.5830 O         1 <0>         0.0000
   7394 WAT       -37.6820  -75.1660   -1.3330 O         1 <0>         0.0000
   7395 WAT       -37.6820  -75.1660   -1.0830 O         1 <0>         0.0000
   7396 WAT       -37.6820  -75.1660   -0.8330 O         1 <0>         0.0000
   7397 WAT       -37.6820  -75.1660   -0.5830 O         1 <0>         0.0000
   7398 WAT       -37.6820  -75.1660   -0.3330 O         1 <0>         0.0000
   7399 WAT       -37.6820  -75.1660   -0.0830 O         1 <0>         0.0000
   7400 WAT       -37.6820  -74.9160   -9.8330 O         1 <0>         0.0000
   7401 WAT       -37.6820  -74.9160   -9.5830 O         1 <0>         0.0000
   7402 WAT       -37.6820  -74.9160   -9.3330 O         1 <0>         0.0000
   7403 WAT       -37.6820  -74.9160   -9.0830 O         1 <0>         0.0000
   7404 WAT       -37.6820  -74.9160   -8.8330 O         1 <0>         0.0000
   7405 WAT       -37.6820  -74.9160   -8.5830 O         1 <0>         0.0000
   7406 WAT       -37.6820  -74.9160   -8.3330 O         1 <0>         0.0000
   7407 WAT       -37.6820  -74.9160   -8.0830 O         1 <0>         0.0000
   7408 WAT       -37.6820  -74.9160   -7.8330 O         1 <0>         0.0000
   7409 WAT       -37.6820  -74.9160   -7.5830 O         1 <0>         0.0000
   7410 WAT       -37.6820  -74.9160   -7.3330 O         1 <0>         0.0000
   7411 WAT       -37.6820  -74.9160   -7.0830 O         1 <0>         0.0000
   7412 WAT       -37.6820  -74.9160   -6.8330 O         1 <0>         0.0000
   7413 WAT       -37.6820  -74.9160   -6.5830 O         1 <0>         0.0000
   7414 WAT       -37.6820  -74.9160   -6.3330 O         1 <0>         0.0000
   7415 WAT       -37.6820  -74.9160   -6.0830 O         1 <0>         0.0000
   7416 WAT       -37.6820  -74.9160   -5.8330 O         1 <0>         0.0000
   7417 WAT       -37.6820  -74.9160   -5.5830 O         1 <0>         0.0000
   7418 WAT       -37.6820  -74.9160   -5.3330 O         1 <0>         0.0000
   7419 WAT       -37.6820  -74.9160   -5.0830 O         1 <0>         0.0000
   7420 WAT       -37.6820  -74.9160   -4.8330 O         1 <0>         0.0001
   7421 WAT       -37.6820  -74.9160   -4.5830 O         1 <0>         0.0001
   7422 WAT       -37.6820  -74.9160   -4.3330 O         1 <0>         0.0000
   7423 WAT       -37.6820  -74.9160   -4.0830 O         1 <0>         0.0000
   7424 WAT       -37.6820  -74.9160   -3.8330 O         1 <0>         0.0000
   7425 WAT       -37.6820  -74.9160   -3.5830 O         1 <0>         0.0000
   7426 WAT       -37.6820  -74.9160   -3.3330 O         1 <0>         0.0000
   7427 WAT       -37.6820  -74.9160   -3.0830 O         1 <0>         0.0000
   7428 WAT       -37.6820  -74.9160   -2.8330 O         1 <0>         0.0000
   7429 WAT       -37.6820  -74.9160   -2.5830 O         1 <0>         0.0000
   7430 WAT       -37.6820  -74.9160   -2.3330 O         1 <0>         0.0000
   7431 WAT       -37.6820  -74.9160   -2.0830 O         1 <0>         0.0000
   7432 WAT       -37.6820  -74.9160   -1.8330 O         1 <0>         0.0000
   7433 WAT       -37.6820  -74.9160   -1.5830 O         1 <0>         0.0000
   7434 WAT       -37.6820  -74.9160   -1.3330 O         1 <0>         0.0000
   7435 WAT       -37.6820  -74.9160   -1.0830 O         1 <0>         0.0000
   7436 WAT       -37.6820  -74.9160   -0.8330 O         1 <0>         0.0000
   7437 WAT       -37.6820  -74.9160   -0.5830 O         1 <0>         0.0000
   7438 WAT       -37.6820  -74.9160   -0.3330 O         1 <0>         0.0000
   7439 WAT       -37.6820  -74.9160   -0.0830 O         1 <0>         0.0000
   7440 WAT       -37.6820  -74.6660   -9.8330 O         1 <0>         0.0000
   7441 WAT       -37.6820  -74.6660   -9.5830 O         1 <0>         0.0000
   7442 WAT       -37.6820  -74.6660   -9.3330 O         1 <0>         0.0000
   7443 WAT       -37.6820  -74.6660   -9.0830 O         1 <0>         0.0000
   7444 WAT       -37.6820  -74.6660   -8.8330 O         1 <0>         0.0000
   7445 WAT       -37.6820  -74.6660   -8.5830 O         1 <0>         0.0000
   7446 WAT       -37.6820  -74.6660   -8.3330 O         1 <0>         0.0000
   7447 WAT       -37.6820  -74.6660   -8.0830 O         1 <0>         0.0000
   7448 WAT       -37.6820  -74.6660   -7.8330 O         1 <0>         0.0000
   7449 WAT       -37.6820  -74.6660   -7.5830 O         1 <0>         0.0000
   7450 WAT       -37.6820  -74.6660   -7.3330 O         1 <0>         0.0000
   7451 WAT       -37.6820  -74.6660   -7.0830 O         1 <0>         0.0000
   7452 WAT       -37.6820  -74.6660   -6.8330 O         1 <0>         0.0000
   7453 WAT       -37.6820  -74.6660   -6.5830 O         1 <0>         0.0000
   7454 WAT       -37.6820  -74.6660   -6.3330 O         1 <0>         0.0000
   7455 WAT       -37.6820  -74.6660   -6.0830 O         1 <0>         0.0000
   7456 WAT       -37.6820  -74.6660   -5.8330 O         1 <0>         0.0000
   7457 WAT       -37.6820  -74.6660   -5.5830 O         1 <0>         0.0000
   7458 WAT       -37.6820  -74.6660   -5.3330 O         1 <0>         0.0000
   7459 WAT       -37.6820  -74.6660   -5.0830 O         1 <0>         0.0001
   7460 WAT       -37.6820  -74.6660   -4.8330 O         1 <0>         0.0001
   7461 WAT       -37.6820  -74.6660   -4.5830 O         1 <0>         0.0001
   7462 WAT       -37.6820  -74.6660   -4.3330 O         1 <0>         0.0001
   7463 WAT       -37.6820  -74.6660   -4.0830 O         1 <0>         0.0000
   7464 WAT       -37.6820  -74.6660   -3.8330 O         1 <0>         0.0000
   7465 WAT       -37.6820  -74.6660   -3.5830 O         1 <0>         0.0000
   7466 WAT       -37.6820  -74.6660   -3.3330 O         1 <0>         0.0000
   7467 WAT       -37.6820  -74.6660   -3.0830 O         1 <0>         0.0000
   7468 WAT       -37.6820  -74.6660   -2.8330 O         1 <0>         0.0000
   7469 WAT       -37.6820  -74.6660   -2.5830 O         1 <0>         0.0000
   7470 WAT       -37.6820  -74.6660   -2.3330 O         1 <0>         0.0000
   7471 WAT       -37.6820  -74.6660   -2.0830 O         1 <0>         0.0000
   7472 WAT       -37.6820  -74.6660   -1.8330 O         1 <0>         0.0000
   7473 WAT       -37.6820  -74.6660   -1.5830 O         1 <0>         0.0000
   7474 WAT       -37.6820  -74.6660   -1.3330 O         1 <0>         0.0000
   7475 WAT       -37.6820  -74.6660   -1.0830 O         1 <0>         0.0000
   7476 WAT       -37.6820  -74.6660   -0.8330 O         1 <0>         0.0000
   7477 WAT       -37.6820  -74.6660   -0.5830 O         1 <0>         0.0000
   7478 WAT       -37.6820  -74.6660   -0.3330 O         1 <0>         0.0000
   7479 WAT       -37.6820  -74.6660   -0.0830 O         1 <0>         0.0000
   7480 WAT       -37.6820  -74.4160   -9.8330 O         1 <0>         0.0000
   7481 WAT       -37.6820  -74.4160   -9.5830 O         1 <0>         0.0000
   7482 WAT       -37.6820  -74.4160   -9.3330 O         1 <0>         0.0000
   7483 WAT       -37.6820  -74.4160   -9.0830 O         1 <0>         0.0000
   7484 WAT       -37.6820  -74.4160   -8.8330 O         1 <0>         0.0000
   7485 WAT       -37.6820  -74.4160   -8.5830 O         1 <0>         0.0000
   7486 WAT       -37.6820  -74.4160   -8.3330 O         1 <0>         0.0000
   7487 WAT       -37.6820  -74.4160   -8.0830 O         1 <0>         0.0000
   7488 WAT       -37.6820  -74.4160   -7.8330 O         1 <0>         0.0000
   7489 WAT       -37.6820  -74.4160   -7.5830 O         1 <0>         0.0000
   7490 WAT       -37.6820  -74.4160   -7.3330 O         1 <0>         0.0000
   7491 WAT       -37.6820  -74.4160   -7.0830 O         1 <0>         0.0000
   7492 WAT       -37.6820  -74.4160   -6.8330 O         1 <0>         0.0000
   7493 WAT       -37.6820  -74.4160   -6.5830 O         1 <0>         0.0000
   7494 WAT       -37.6820  -74.4160   -6.3330 O         1 <0>         0.0000
   7495 WAT       -37.6820  -74.4160   -6.0830 O         1 <0>         0.0000
   7496 WAT       -37.6820  -74.4160   -5.8330 O         1 <0>         0.0000
   7497 WAT       -37.6820  -74.4160   -5.5830 O         1 <0>         0.0000
   7498 WAT       -37.6820  -74.4160   -5.3330 O         1 <0>         0.0000
   7499 WAT       -37.6820  -74.4160   -5.0830 O         1 <0>         0.0001
   7500 WAT       -37.6820  -74.4160   -4.8330 O         1 <0>         0.0001
   7501 WAT       -37.6820  -74.4160   -4.5830 O         1 <0>         0.0001
   7502 WAT       -37.6820  -74.4160   -4.3330 O         1 <0>         0.0001
   7503 WAT       -37.6820  -74.4160   -4.0830 O         1 <0>         0.0000
   7504 WAT       -37.6820  -74.4160   -3.8330 O         1 <0>         0.0000
   7505 WAT       -37.6820  -74.4160   -3.5830 O         1 <0>         0.0000
   7506 WAT       -37.6820  -74.4160   -3.3330 O         1 <0>         0.0000
   7507 WAT       -37.6820  -74.4160   -3.0830 O         1 <0>         0.0000
   7508 WAT       -37.6820  -74.4160   -2.8330 O         1 <0>         0.0000
   7509 WAT       -37.6820  -74.4160   -2.5830 O         1 <0>         0.0000
   7510 WAT       -37.6820  -74.4160   -2.3330 O         1 <0>         0.0000
   7511 WAT       -37.6820  -74.4160   -2.0830 O         1 <0>         0.0000
   7512 WAT       -37.6820  -74.4160   -1.8330 O         1 <0>         0.0000
   7513 WAT       -37.6820  -74.4160   -1.5830 O         1 <0>         0.0000
   7514 WAT       -37.6820  -74.4160   -1.3330 O         1 <0>         0.0000
   7515 WAT       -37.6820  -74.4160   -1.0830 O         1 <0>         0.0000
   7516 WAT       -37.6820  -74.4160   -0.8330 O         1 <0>         0.0000
   7517 WAT       -37.6820  -74.4160   -0.5830 O         1 <0>         0.0000
   7518 WAT       -37.6820  -74.4160   -0.3330 O         1 <0>         0.0000
   7519 WAT       -37.6820  -74.4160   -0.0830 O         1 <0>         0.0000
   7520 WAT       -37.6820  -74.1660   -9.8330 O         1 <0>         0.0000
   7521 WAT       -37.6820  -74.1660   -9.5830 O         1 <0>         0.0000
   7522 WAT       -37.6820  -74.1660   -9.3330 O         1 <0>         0.0000
   7523 WAT       -37.6820  -74.1660   -9.0830 O         1 <0>         0.0000
   7524 WAT       -37.6820  -74.1660   -8.8330 O         1 <0>         0.0000
   7525 WAT       -37.6820  -74.1660   -8.5830 O         1 <0>         0.0000
   7526 WAT       -37.6820  -74.1660   -8.3330 O         1 <0>         0.0000
   7527 WAT       -37.6820  -74.1660   -8.0830 O         1 <0>         0.0000
   7528 WAT       -37.6820  -74.1660   -7.8330 O         1 <0>         0.0000
   7529 WAT       -37.6820  -74.1660   -7.5830 O         1 <0>         0.0000
   7530 WAT       -37.6820  -74.1660   -7.3330 O         1 <0>         0.0000
   7531 WAT       -37.6820  -74.1660   -7.0830 O         1 <0>         0.0000
   7532 WAT       -37.6820  -74.1660   -6.8330 O         1 <0>         0.0000
   7533 WAT       -37.6820  -74.1660   -6.5830 O         1 <0>         0.0000
   7534 WAT       -37.6820  -74.1660   -6.3330 O         1 <0>         0.0000
   7535 WAT       -37.6820  -74.1660   -6.0830 O         1 <0>         0.0000
   7536 WAT       -37.6820  -74.1660   -5.8330 O         1 <0>         0.0000
   7537 WAT       -37.6820  -74.1660   -5.5830 O         1 <0>         0.0000
   7538 WAT       -37.6820  -74.1660   -5.3330 O         1 <0>         0.0001
   7539 WAT       -37.6820  -74.1660   -5.0830 O         1 <0>         0.0001
   7540 WAT       -37.6820  -74.1660   -4.8330 O         1 <0>         0.0001
   7541 WAT       -37.6820  -74.1660   -4.5830 O         1 <0>         0.0001
   7542 WAT       -37.6820  -74.1660   -4.3330 O         1 <0>         0.0000
   7543 WAT       -37.6820  -74.1660   -4.0830 O         1 <0>         0.0000
   7544 WAT       -37.6820  -74.1660   -3.8330 O         1 <0>         0.0000
   7545 WAT       -37.6820  -74.1660   -3.5830 O         1 <0>         0.0000
   7546 WAT       -37.6820  -74.1660   -3.3330 O         1 <0>         0.0000
   7547 WAT       -37.6820  -74.1660   -3.0830 O         1 <0>         0.0000
   7548 WAT       -37.6820  -74.1660   -2.8330 O         1 <0>         0.0000
   7549 WAT       -37.6820  -74.1660   -2.5830 O         1 <0>         0.0000
   7550 WAT       -37.6820  -74.1660   -2.3330 O         1 <0>         0.0000
   7551 WAT       -37.6820  -74.1660   -2.0830 O         1 <0>         0.0000
   7552 WAT       -37.6820  -74.1660   -1.8330 O         1 <0>         0.0000
   7553 WAT       -37.6820  -74.1660   -1.5830 O         1 <0>         0.0000
   7554 WAT       -37.6820  -74.1660   -1.3330 O         1 <0>         0.0000
   7555 WAT       -37.6820  -74.1660   -1.0830 O         1 <0>         0.0000
   7556 WAT       -37.6820  -74.1660   -0.8330 O         1 <0>         0.0000
   7557 WAT       -37.6820  -74.1660   -0.5830 O         1 <0>         0.0000
   7558 WAT       -37.6820  -74.1660   -0.3330 O         1 <0>         0.0000
   7559 WAT       -37.6820  -74.1660   -0.0830 O         1 <0>         0.0000
   7560 WAT       -37.6820  -73.9160   -9.8330 O         1 <0>         0.0000
   7561 WAT       -37.6820  -73.9160   -9.5830 O         1 <0>         0.0000
   7562 WAT       -37.6820  -73.9160   -9.3330 O         1 <0>         0.0000
   7563 WAT       -37.6820  -73.9160   -9.0830 O         1 <0>         0.0000
   7564 WAT       -37.6820  -73.9160   -8.8330 O         1 <0>         0.0000
   7565 WAT       -37.6820  -73.9160   -8.5830 O         1 <0>         0.0000
   7566 WAT       -37.6820  -73.9160   -8.3330 O         1 <0>         0.0000
   7567 WAT       -37.6820  -73.9160   -8.0830 O         1 <0>         0.0000
   7568 WAT       -37.6820  -73.9160   -7.8330 O         1 <0>         0.0000
   7569 WAT       -37.6820  -73.9160   -7.5830 O         1 <0>         0.0000
   7570 WAT       -37.6820  -73.9160   -7.3330 O         1 <0>         0.0000
   7571 WAT       -37.6820  -73.9160   -7.0830 O         1 <0>         0.0000
   7572 WAT       -37.6820  -73.9160   -6.8330 O         1 <0>         0.0000
   7573 WAT       -37.6820  -73.9160   -6.5830 O         1 <0>         0.0000
   7574 WAT       -37.6820  -73.9160   -6.3330 O         1 <0>         0.0000
   7575 WAT       -37.6820  -73.9160   -6.0830 O         1 <0>         0.0000
   7576 WAT       -37.6820  -73.9160   -5.8330 O         1 <0>         0.0001
   7577 WAT       -37.6820  -73.9160   -5.5830 O         1 <0>         0.0001
   7578 WAT       -37.6820  -73.9160   -5.3330 O         1 <0>         0.0001
   7579 WAT       -37.6820  -73.9160   -5.0830 O         1 <0>         0.0001
   7580 WAT       -37.6820  -73.9160   -4.8330 O         1 <0>         0.0001
   7581 WAT       -37.6820  -73.9160   -4.5830 O         1 <0>         0.0000
   7582 WAT       -37.6820  -73.9160   -4.3330 O         1 <0>         0.0000
   7583 WAT       -37.6820  -73.9160   -4.0830 O         1 <0>         0.0000
   7584 WAT       -37.6820  -73.9160   -3.8330 O         1 <0>         0.0000
   7585 WAT       -37.6820  -73.9160   -3.5830 O         1 <0>         0.0000
   7586 WAT       -37.6820  -73.9160   -3.3330 O         1 <0>         0.0000
   7587 WAT       -37.6820  -73.9160   -3.0830 O         1 <0>         0.0000
   7588 WAT       -37.6820  -73.9160   -2.8330 O         1 <0>         0.0000
   7589 WAT       -37.6820  -73.9160   -2.5830 O         1 <0>         0.0000
   7590 WAT       -37.6820  -73.9160   -2.3330 O         1 <0>         0.0000
   7591 WAT       -37.6820  -73.9160   -2.0830 O         1 <0>         0.0000
   7592 WAT       -37.6820  -73.9160   -1.8330 O         1 <0>         0.0000
   7593 WAT       -37.6820  -73.9160   -1.5830 O         1 <0>         0.0000
   7594 WAT       -37.6820  -73.9160   -1.3330 O         1 <0>         0.0000
   7595 WAT       -37.6820  -73.9160   -1.0830 O         1 <0>         0.0000
   7596 WAT       -37.6820  -73.9160   -0.8330 O         1 <0>         0.0000
   7597 WAT       -37.6820  -73.9160   -0.5830 O         1 <0>         0.0000
   7598 WAT       -37.6820  -73.9160   -0.3330 O         1 <0>         0.0000
   7599 WAT       -37.6820  -73.9160   -0.0830 O         1 <0>         0.0000
   7600 WAT       -37.6820  -73.6660   -9.8330 O         1 <0>         0.0000
   7601 WAT       -37.6820  -73.6660   -9.5830 O         1 <0>         0.0000
   7602 WAT       -37.6820  -73.6660   -9.3330 O         1 <0>         0.0000
   7603 WAT       -37.6820  -73.6660   -9.0830 O         1 <0>         0.0000
   7604 WAT       -37.6820  -73.6660   -8.8330 O         1 <0>         0.0000
   7605 WAT       -37.6820  -73.6660   -8.5830 O         1 <0>         0.0000
   7606 WAT       -37.6820  -73.6660   -8.3330 O         1 <0>         0.0000
   7607 WAT       -37.6820  -73.6660   -8.0830 O         1 <0>         0.0000
   7608 WAT       -37.6820  -73.6660   -7.8330 O         1 <0>         0.0000
   7609 WAT       -37.6820  -73.6660   -7.5830 O         1 <0>         0.0000
   7610 WAT       -37.6820  -73.6660   -7.3330 O         1 <0>         0.0000
   7611 WAT       -37.6820  -73.6660   -7.0830 O         1 <0>         0.0000
   7612 WAT       -37.6820  -73.6660   -6.8330 O         1 <0>         0.0000
   7613 WAT       -37.6820  -73.6660   -6.5830 O         1 <0>         0.0000
   7614 WAT       -37.6820  -73.6660   -6.3330 O         1 <0>         0.0000
   7615 WAT       -37.6820  -73.6660   -6.0830 O         1 <0>         0.0000
   7616 WAT       -37.6820  -73.6660   -5.8330 O         1 <0>         0.0001
   7617 WAT       -37.6820  -73.6660   -5.5830 O         1 <0>         0.0001
   7618 WAT       -37.6820  -73.6660   -5.3330 O         1 <0>         0.0001
   7619 WAT       -37.6820  -73.6660   -5.0830 O         1 <0>         0.0000
   7620 WAT       -37.6820  -73.6660   -4.8330 O         1 <0>         0.0000
   7621 WAT       -37.6820  -73.6660   -4.5830 O         1 <0>         0.0000
   7622 WAT       -37.6820  -73.6660   -4.3330 O         1 <0>         0.0000
   7623 WAT       -37.6820  -73.6660   -4.0830 O         1 <0>         0.0000
   7624 WAT       -37.6820  -73.6660   -3.8330 O         1 <0>         0.0000
   7625 WAT       -37.6820  -73.6660   -3.5830 O         1 <0>         0.0000
   7626 WAT       -37.6820  -73.6660   -3.3330 O         1 <0>         0.0000
   7627 WAT       -37.6820  -73.6660   -3.0830 O         1 <0>         0.0000
   7628 WAT       -37.6820  -73.6660   -2.8330 O         1 <0>         0.0000
   7629 WAT       -37.6820  -73.6660   -2.5830 O         1 <0>         0.0000
   7630 WAT       -37.6820  -73.6660   -2.3330 O         1 <0>         0.0000
   7631 WAT       -37.6820  -73.6660   -2.0830 O         1 <0>         0.0000
   7632 WAT       -37.6820  -73.6660   -1.8330 O         1 <0>         0.0000
   7633 WAT       -37.6820  -73.6660   -1.5830 O         1 <0>         0.0000
   7634 WAT       -37.6820  -73.6660   -1.3330 O         1 <0>         0.0000
   7635 WAT       -37.6820  -73.6660   -1.0830 O         1 <0>         0.0000
   7636 WAT       -37.6820  -73.6660   -0.8330 O         1 <0>         0.0000
   7637 WAT       -37.6820  -73.6660   -0.5830 O         1 <0>         0.0000
   7638 WAT       -37.6820  -73.6660   -0.3330 O         1 <0>         0.0000
   7639 WAT       -37.6820  -73.6660   -0.0830 O         1 <0>         0.0000
   7640 WAT       -37.6820  -73.4160   -9.8330 O         1 <0>         0.0000
   7641 WAT       -37.6820  -73.4160   -9.5830 O         1 <0>         0.0000
   7642 WAT       -37.6820  -73.4160   -9.3330 O         1 <0>         0.0000
   7643 WAT       -37.6820  -73.4160   -9.0830 O         1 <0>         0.0000
   7644 WAT       -37.6820  -73.4160   -8.8330 O         1 <0>         0.0000
   7645 WAT       -37.6820  -73.4160   -8.5830 O         1 <0>         0.0000
   7646 WAT       -37.6820  -73.4160   -8.3330 O         1 <0>         0.0000
   7647 WAT       -37.6820  -73.4160   -8.0830 O         1 <0>         0.0000
   7648 WAT       -37.6820  -73.4160   -7.8330 O         1 <0>         0.0000
   7649 WAT       -37.6820  -73.4160   -7.5830 O         1 <0>         0.0000
   7650 WAT       -37.6820  -73.4160   -7.3330 O         1 <0>         0.0000
   7651 WAT       -37.6820  -73.4160   -7.0830 O         1 <0>         0.0000
   7652 WAT       -37.6820  -73.4160   -6.8330 O         1 <0>         0.0000
   7653 WAT       -37.6820  -73.4160   -6.5830 O         1 <0>         0.0000
   7654 WAT       -37.6820  -73.4160   -6.3330 O         1 <0>         0.0000
   7655 WAT       -37.6820  -73.4160   -6.0830 O         1 <0>         0.0000
   7656 WAT       -37.6820  -73.4160   -5.8330 O         1 <0>         0.0001
   7657 WAT       -37.6820  -73.4160   -5.5830 O         1 <0>         0.0001
   7658 WAT       -37.6820  -73.4160   -5.3330 O         1 <0>         0.0001
   7659 WAT       -37.6820  -73.4160   -5.0830 O         1 <0>         0.0000
   7660 WAT       -37.6820  -73.4160   -4.8330 O         1 <0>         0.0000
   7661 WAT       -37.6820  -73.4160   -4.5830 O         1 <0>         0.0000
   7662 WAT       -37.6820  -73.4160   -4.3330 O         1 <0>         0.0000
   7663 WAT       -37.6820  -73.4160   -4.0830 O         1 <0>         0.0000
   7664 WAT       -37.6820  -73.4160   -3.8330 O         1 <0>         0.0000
   7665 WAT       -37.6820  -73.4160   -3.5830 O         1 <0>         0.0000
   7666 WAT       -37.6820  -73.4160   -3.3330 O         1 <0>         0.0000
   7667 WAT       -37.6820  -73.4160   -3.0830 O         1 <0>         0.0000
   7668 WAT       -37.6820  -73.4160   -2.8330 O         1 <0>         0.0000
   7669 WAT       -37.6820  -73.4160   -2.5830 O         1 <0>         0.0000
   7670 WAT       -37.6820  -73.4160   -2.3330 O         1 <0>         0.0000
   7671 WAT       -37.6820  -73.4160   -2.0830 O         1 <0>         0.0000
   7672 WAT       -37.6820  -73.4160   -1.8330 O         1 <0>         0.0000
   7673 WAT       -37.6820  -73.4160   -1.5830 O         1 <0>         0.0000
   7674 WAT       -37.6820  -73.4160   -1.3330 O         1 <0>         0.0000
   7675 WAT       -37.6820  -73.4160   -1.0830 O         1 <0>         0.0000
   7676 WAT       -37.6820  -73.4160   -0.8330 O         1 <0>         0.0000
   7677 WAT       -37.6820  -73.4160   -0.5830 O         1 <0>         0.0000
   7678 WAT       -37.6820  -73.4160   -0.3330 O         1 <0>         0.0000
   7679 WAT       -37.6820  -73.4160   -0.0830 O         1 <0>         0.0000
   7680 WAT       -37.6820  -73.1660   -9.8330 O         1 <0>         0.0000
   7681 WAT       -37.6820  -73.1660   -9.5830 O         1 <0>         0.0000
   7682 WAT       -37.6820  -73.1660   -9.3330 O         1 <0>         0.0000
   7683 WAT       -37.6820  -73.1660   -9.0830 O         1 <0>         0.0000
   7684 WAT       -37.6820  -73.1660   -8.8330 O         1 <0>         0.0000
   7685 WAT       -37.6820  -73.1660   -8.5830 O         1 <0>         0.0000
   7686 WAT       -37.6820  -73.1660   -8.3330 O         1 <0>         0.0000
   7687 WAT       -37.6820  -73.1660   -8.0830 O         1 <0>         0.0000
   7688 WAT       -37.6820  -73.1660   -7.8330 O         1 <0>         0.0000
   7689 WAT       -37.6820  -73.1660   -7.5830 O         1 <0>         0.0000
   7690 WAT       -37.6820  -73.1660   -7.3330 O         1 <0>         0.0000
   7691 WAT       -37.6820  -73.1660   -7.0830 O         1 <0>         0.0000
   7692 WAT       -37.6820  -73.1660   -6.8330 O         1 <0>         0.0000
   7693 WAT       -37.6820  -73.1660   -6.5830 O         1 <0>         0.0000
   7694 WAT       -37.6820  -73.1660   -6.3330 O         1 <0>         0.0000
   7695 WAT       -37.6820  -73.1660   -6.0830 O         1 <0>         0.0000
   7696 WAT       -37.6820  -73.1660   -5.8330 O         1 <0>         0.0000
   7697 WAT       -37.6820  -73.1660   -5.5830 O         1 <0>         0.0000
   7698 WAT       -37.6820  -73.1660   -5.3330 O         1 <0>         0.0000
   7699 WAT       -37.6820  -73.1660   -5.0830 O         1 <0>         0.0000
   7700 WAT       -37.6820  -73.1660   -4.8330 O         1 <0>         0.0000
   7701 WAT       -37.6820  -73.1660   -4.5830 O         1 <0>         0.0000
   7702 WAT       -37.6820  -73.1660   -4.3330 O         1 <0>         0.0000
   7703 WAT       -37.6820  -73.1660   -4.0830 O         1 <0>         0.0000
   7704 WAT       -37.6820  -73.1660   -3.8330 O         1 <0>         0.0000
   7705 WAT       -37.6820  -73.1660   -3.5830 O         1 <0>         0.0000
   7706 WAT       -37.6820  -73.1660   -3.3330 O         1 <0>         0.0000
   7707 WAT       -37.6820  -73.1660   -3.0830 O         1 <0>         0.0000
   7708 WAT       -37.6820  -73.1660   -2.8330 O         1 <0>         0.0000
   7709 WAT       -37.6820  -73.1660   -2.5830 O         1 <0>         0.0000
   7710 WAT       -37.6820  -73.1660   -2.3330 O         1 <0>         0.0000
   7711 WAT       -37.6820  -73.1660   -2.0830 O         1 <0>         0.0000
   7712 WAT       -37.6820  -73.1660   -1.8330 O         1 <0>         0.0000
   7713 WAT       -37.6820  -73.1660   -1.5830 O         1 <0>         0.0000
   7714 WAT       -37.6820  -73.1660   -1.3330 O         1 <0>         0.0000
   7715 WAT       -37.6820  -73.1660   -1.0830 O         1 <0>         0.0000
   7716 WAT       -37.6820  -73.1660   -0.8330 O         1 <0>         0.0000
   7717 WAT       -37.6820  -73.1660   -0.5830 O         1 <0>         0.0000
   7718 WAT       -37.6820  -73.1660   -0.3330 O         1 <0>         0.0000
   7719 WAT       -37.6820  -73.1660   -0.0830 O         1 <0>         0.0000
   7720 WAT       -37.6820  -72.9160   -9.8330 O         1 <0>         0.0000
   7721 WAT       -37.6820  -72.9160   -9.5830 O         1 <0>         0.0000
   7722 WAT       -37.6820  -72.9160   -9.3330 O         1 <0>         0.0000
   7723 WAT       -37.6820  -72.9160   -9.0830 O         1 <0>         0.0000
   7724 WAT       -37.6820  -72.9160   -8.8330 O         1 <0>         0.0000
   7725 WAT       -37.6820  -72.9160   -8.5830 O         1 <0>         0.0000
   7726 WAT       -37.6820  -72.9160   -8.3330 O         1 <0>         0.0000
   7727 WAT       -37.6820  -72.9160   -8.0830 O         1 <0>         0.0000
   7728 WAT       -37.6820  -72.9160   -7.8330 O         1 <0>         0.0000
   7729 WAT       -37.6820  -72.9160   -7.5830 O         1 <0>         0.0000
   7730 WAT       -37.6820  -72.9160   -7.3330 O         1 <0>         0.0000
   7731 WAT       -37.6820  -72.9160   -7.0830 O         1 <0>         0.0000
   7732 WAT       -37.6820  -72.9160   -6.8330 O         1 <0>         0.0000
   7733 WAT       -37.6820  -72.9160   -6.5830 O         1 <0>         0.0000
   7734 WAT       -37.6820  -72.9160   -6.3330 O         1 <0>         0.0000
   7735 WAT       -37.6820  -72.9160   -6.0830 O         1 <0>         0.0000
   7736 WAT       -37.6820  -72.9160   -5.8330 O         1 <0>         0.0000
   7737 WAT       -37.6820  -72.9160   -5.5830 O         1 <0>         0.0000
   7738 WAT       -37.6820  -72.9160   -5.3330 O         1 <0>         0.0000
   7739 WAT       -37.6820  -72.9160   -5.0830 O         1 <0>         0.0000
   7740 WAT       -37.6820  -72.9160   -4.8330 O         1 <0>         0.0000
   7741 WAT       -37.6820  -72.9160   -4.5830 O         1 <0>         0.0000
   7742 WAT       -37.6820  -72.9160   -4.3330 O         1 <0>         0.0000
   7743 WAT       -37.6820  -72.9160   -4.0830 O         1 <0>         0.0000
   7744 WAT       -37.6820  -72.9160   -3.8330 O         1 <0>         0.0000
   7745 WAT       -37.6820  -72.9160   -3.5830 O         1 <0>         0.0000
   7746 WAT       -37.6820  -72.9160   -3.3330 O         1 <0>         0.0000
   7747 WAT       -37.6820  -72.9160   -3.0830 O         1 <0>         0.0000
   7748 WAT       -37.6820  -72.9160   -2.8330 O         1 <0>         0.0000
   7749 WAT       -37.6820  -72.9160   -2.5830 O         1 <0>         0.0000
   7750 WAT       -37.6820  -72.9160   -2.3330 O         1 <0>         0.0000
   7751 WAT       -37.6820  -72.9160   -2.0830 O         1 <0>         0.0000
   7752 WAT       -37.6820  -72.9160   -1.8330 O         1 <0>         0.0000
   7753 WAT       -37.6820  -72.9160   -1.5830 O         1 <0>         0.0000
   7754 WAT       -37.6820  -72.9160   -1.3330 O         1 <0>         0.0000
   7755 WAT       -37.6820  -72.9160   -1.0830 O         1 <0>         0.0000
   7756 WAT       -37.6820  -72.9160   -0.8330 O         1 <0>         0.0000
   7757 WAT       -37.6820  -72.9160   -0.5830 O         1 <0>         0.0000
   7758 WAT       -37.6820  -72.9160   -0.3330 O         1 <0>         0.0000
   7759 WAT       -37.6820  -72.9160   -0.0830 O         1 <0>         0.0000
   7760 WAT       -37.6820  -72.6660   -9.8330 O         1 <0>         0.0000
   7761 WAT       -37.6820  -72.6660   -9.5830 O         1 <0>         0.0000
   7762 WAT       -37.6820  -72.6660   -9.3330 O         1 <0>         0.0000
   7763 WAT       -37.6820  -72.6660   -9.0830 O         1 <0>         0.0000
   7764 WAT       -37.6820  -72.6660   -8.8330 O         1 <0>         0.0000
   7765 WAT       -37.6820  -72.6660   -8.5830 O         1 <0>         0.0000
   7766 WAT       -37.6820  -72.6660   -8.3330 O         1 <0>         0.0000
   7767 WAT       -37.6820  -72.6660   -8.0830 O         1 <0>         0.0000
   7768 WAT       -37.6820  -72.6660   -7.8330 O         1 <0>         0.0000
   7769 WAT       -37.6820  -72.6660   -7.5830 O         1 <0>         0.0000
   7770 WAT       -37.6820  -72.6660   -7.3330 O         1 <0>         0.0000
   7771 WAT       -37.6820  -72.6660   -7.0830 O         1 <0>         0.0000
   7772 WAT       -37.6820  -72.6660   -6.8330 O         1 <0>         0.0000
   7773 WAT       -37.6820  -72.6660   -6.5830 O         1 <0>         0.0000
   7774 WAT       -37.6820  -72.6660   -6.3330 O         1 <0>         0.0000
   7775 WAT       -37.6820  -72.6660   -6.0830 O         1 <0>         0.0000
   7776 WAT       -37.6820  -72.6660   -5.8330 O         1 <0>         0.0000
   7777 WAT       -37.6820  -72.6660   -5.5830 O         1 <0>         0.0000
   7778 WAT       -37.6820  -72.6660   -5.3330 O         1 <0>         0.0000
   7779 WAT       -37.6820  -72.6660   -5.0830 O         1 <0>         0.0000
   7780 WAT       -37.6820  -72.6660   -4.8330 O         1 <0>         0.0000
   7781 WAT       -37.6820  -72.6660   -4.5830 O         1 <0>         0.0000
   7782 WAT       -37.6820  -72.6660   -4.3330 O         1 <0>         0.0000
   7783 WAT       -37.6820  -72.6660   -4.0830 O         1 <0>         0.0000
   7784 WAT       -37.6820  -72.6660   -3.8330 O         1 <0>         0.0000
   7785 WAT       -37.6820  -72.6660   -3.5830 O         1 <0>         0.0000
   7786 WAT       -37.6820  -72.6660   -3.3330 O         1 <0>         0.0000
   7787 WAT       -37.6820  -72.6660   -3.0830 O         1 <0>         0.0000
   7788 WAT       -37.6820  -72.6660   -2.8330 O         1 <0>         0.0000
   7789 WAT       -37.6820  -72.6660   -2.5830 O         1 <0>         0.0000
   7790 WAT       -37.6820  -72.6660   -2.3330 O         1 <0>         0.0000
   7791 WAT       -37.6820  -72.6660   -2.0830 O         1 <0>         0.0000
   7792 WAT       -37.6820  -72.6660   -1.8330 O         1 <0>         0.0000
   7793 WAT       -37.6820  -72.6660   -1.5830 O         1 <0>         0.0000
   7794 WAT       -37.6820  -72.6660   -1.3330 O         1 <0>         0.0000
   7795 WAT       -37.6820  -72.6660   -1.0830 O         1 <0>         0.0000
   7796 WAT       -37.6820  -72.6660   -0.8330 O         1 <0>         0.0000
   7797 WAT       -37.6820  -72.6660   -0.5830 O         1 <0>         0.0000
   7798 WAT       -37.6820  -72.6660   -0.3330 O         1 <0>         0.0000
   7799 WAT       -37.6820  -72.6660   -0.0830 O         1 <0>         0.0000
   7800 WAT       -37.6820  -72.4160   -9.8330 O         1 <0>         0.0000
   7801 WAT       -37.6820  -72.4160   -9.5830 O         1 <0>         0.0000
   7802 WAT       -37.6820  -72.4160   -9.3330 O         1 <0>         0.0000
   7803 WAT       -37.6820  -72.4160   -9.0830 O         1 <0>         0.0000
   7804 WAT       -37.6820  -72.4160   -8.8330 O         1 <0>         0.0000
   7805 WAT       -37.6820  -72.4160   -8.5830 O         1 <0>         0.0000
   7806 WAT       -37.6820  -72.4160   -8.3330 O         1 <0>         0.0000
   7807 WAT       -37.6820  -72.4160   -8.0830 O         1 <0>         0.0000
   7808 WAT       -37.6820  -72.4160   -7.8330 O         1 <0>         0.0000
   7809 WAT       -37.6820  -72.4160   -7.5830 O         1 <0>         0.0000
   7810 WAT       -37.6820  -72.4160   -7.3330 O         1 <0>         0.0000
   7811 WAT       -37.6820  -72.4160   -7.0830 O         1 <0>         0.0000
   7812 WAT       -37.6820  -72.4160   -6.8330 O         1 <0>         0.0000
   7813 WAT       -37.6820  -72.4160   -6.5830 O         1 <0>         0.0000
   7814 WAT       -37.6820  -72.4160   -6.3330 O         1 <0>         0.0000
   7815 WAT       -37.6820  -72.4160   -6.0830 O         1 <0>         0.0000
   7816 WAT       -37.6820  -72.4160   -5.8330 O         1 <0>         0.0000
   7817 WAT       -37.6820  -72.4160   -5.5830 O         1 <0>         0.0000
   7818 WAT       -37.6820  -72.4160   -5.3330 O         1 <0>         0.0000
   7819 WAT       -37.6820  -72.4160   -5.0830 O         1 <0>         0.0000
   7820 WAT       -37.6820  -72.4160   -4.8330 O         1 <0>         0.0000
   7821 WAT       -37.6820  -72.4160   -4.5830 O         1 <0>         0.0000
   7822 WAT       -37.6820  -72.4160   -4.3330 O         1 <0>         0.0000
   7823 WAT       -37.6820  -72.4160   -4.0830 O         1 <0>         0.0000
   7824 WAT       -37.6820  -72.4160   -3.8330 O         1 <0>         0.0000
   7825 WAT       -37.6820  -72.4160   -3.5830 O         1 <0>         0.0000
   7826 WAT       -37.6820  -72.4160   -3.3330 O         1 <0>         0.0000
   7827 WAT       -37.6820  -72.4160   -3.0830 O         1 <0>         0.0000
   7828 WAT       -37.6820  -72.4160   -2.8330 O         1 <0>         0.0000
   7829 WAT       -37.6820  -72.4160   -2.5830 O         1 <0>         0.0000
   7830 WAT       -37.6820  -72.4160   -2.3330 O         1 <0>         0.0000
   7831 WAT       -37.6820  -72.4160   -2.0830 O         1 <0>         0.0000
   7832 WAT       -37.6820  -72.4160   -1.8330 O         1 <0>         0.0000
   7833 WAT       -37.6820  -72.4160   -1.5830 O         1 <0>         0.0000
   7834 WAT       -37.6820  -72.4160   -1.3330 O         1 <0>         0.0000
   7835 WAT       -37.6820  -72.4160   -1.0830 O         1 <0>         0.0000
   7836 WAT       -37.6820  -72.4160   -0.8330 O         1 <0>         0.0000
   7837 WAT       -37.6820  -72.4160   -0.5830 O         1 <0>         0.0000
   7838 WAT       -37.6820  -72.4160   -0.3330 O         1 <0>         0.0000
   7839 WAT       -37.6820  -72.4160   -0.0830 O         1 <0>         0.0000
   7840 WAT       -37.6820  -72.1660   -9.8330 O         1 <0>         0.0000
   7841 WAT       -37.6820  -72.1660   -9.5830 O         1 <0>         0.0000
   7842 WAT       -37.6820  -72.1660   -9.3330 O         1 <0>         0.0000
   7843 WAT       -37.6820  -72.1660   -9.0830 O         1 <0>         0.0000
   7844 WAT       -37.6820  -72.1660   -8.8330 O         1 <0>         0.0000
   7845 WAT       -37.6820  -72.1660   -8.5830 O         1 <0>         0.0000
   7846 WAT       -37.6820  -72.1660   -8.3330 O         1 <0>         0.0000
   7847 WAT       -37.6820  -72.1660   -8.0830 O         1 <0>         0.0000
   7848 WAT       -37.6820  -72.1660   -7.8330 O         1 <0>         0.0000
   7849 WAT       -37.6820  -72.1660   -7.5830 O         1 <0>         0.0000
   7850 WAT       -37.6820  -72.1660   -7.3330 O         1 <0>         0.0000
   7851 WAT       -37.6820  -72.1660   -7.0830 O         1 <0>         0.0000
   7852 WAT       -37.6820  -72.1660   -6.8330 O         1 <0>         0.0000
   7853 WAT       -37.6820  -72.1660   -6.5830 O         1 <0>         0.0000
   7854 WAT       -37.6820  -72.1660   -6.3330 O         1 <0>         0.0000
   7855 WAT       -37.6820  -72.1660   -6.0830 O         1 <0>         0.0000
   7856 WAT       -37.6820  -72.1660   -5.8330 O         1 <0>         0.0000
   7857 WAT       -37.6820  -72.1660   -5.5830 O         1 <0>         0.0000
   7858 WAT       -37.6820  -72.1660   -5.3330 O         1 <0>         0.0000
   7859 WAT       -37.6820  -72.1660   -5.0830 O         1 <0>         0.0000
   7860 WAT       -37.6820  -72.1660   -4.8330 O         1 <0>         0.0000
   7861 WAT       -37.6820  -72.1660   -4.5830 O         1 <0>         0.0000
   7862 WAT       -37.6820  -72.1660   -4.3330 O         1 <0>         0.0000
   7863 WAT       -37.6820  -72.1660   -4.0830 O         1 <0>         0.0000
   7864 WAT       -37.6820  -72.1660   -3.8330 O         1 <0>         0.0000
   7865 WAT       -37.6820  -72.1660   -3.5830 O         1 <0>         0.0000
   7866 WAT       -37.6820  -72.1660   -3.3330 O         1 <0>         0.0000
   7867 WAT       -37.6820  -72.1660   -3.0830 O         1 <0>         0.0000
   7868 WAT       -37.6820  -72.1660   -2.8330 O         1 <0>         0.0000
   7869 WAT       -37.6820  -72.1660   -2.5830 O         1 <0>         0.0000
   7870 WAT       -37.6820  -72.1660   -2.3330 O         1 <0>         0.0000
   7871 WAT       -37.6820  -72.1660   -2.0830 O         1 <0>         0.0000
   7872 WAT       -37.6820  -72.1660   -1.8330 O         1 <0>         0.0000
   7873 WAT       -37.6820  -72.1660   -1.5830 O         1 <0>         0.0000
   7874 WAT       -37.6820  -72.1660   -1.3330 O         1 <0>         0.0000
   7875 WAT       -37.6820  -72.1660   -1.0830 O         1 <0>         0.0000
   7876 WAT       -37.6820  -72.1660   -0.8330 O         1 <0>         0.0000
   7877 WAT       -37.6820  -72.1660   -0.5830 O         1 <0>         0.0000
   7878 WAT       -37.6820  -72.1660   -0.3330 O         1 <0>         0.0000
   7879 WAT       -37.6820  -72.1660   -0.0830 O         1 <0>         0.0000
   7880 WAT       -37.6820  -71.9160   -9.8330 O         1 <0>         0.0000
   7881 WAT       -37.6820  -71.9160   -9.5830 O         1 <0>         0.0000
   7882 WAT       -37.6820  -71.9160   -9.3330 O         1 <0>         0.0000
   7883 WAT       -37.6820  -71.9160   -9.0830 O         1 <0>         0.0000
   7884 WAT       -37.6820  -71.9160   -8.8330 O         1 <0>         0.0000
   7885 WAT       -37.6820  -71.9160   -8.5830 O         1 <0>         0.0000
   7886 WAT       -37.6820  -71.9160   -8.3330 O         1 <0>         0.0000
   7887 WAT       -37.6820  -71.9160   -8.0830 O         1 <0>         0.0000
   7888 WAT       -37.6820  -71.9160   -7.8330 O         1 <0>         0.0000
   7889 WAT       -37.6820  -71.9160   -7.5830 O         1 <0>         0.0000
   7890 WAT       -37.6820  -71.9160   -7.3330 O         1 <0>         0.0000
   7891 WAT       -37.6820  -71.9160   -7.0830 O         1 <0>         0.0000
   7892 WAT       -37.6820  -71.9160   -6.8330 O         1 <0>         0.0000
   7893 WAT       -37.6820  -71.9160   -6.5830 O         1 <0>         0.0000
   7894 WAT       -37.6820  -71.9160   -6.3330 O         1 <0>         0.0000
   7895 WAT       -37.6820  -71.9160   -6.0830 O         1 <0>         0.0000
   7896 WAT       -37.6820  -71.9160   -5.8330 O         1 <0>         0.0000
   7897 WAT       -37.6820  -71.9160   -5.5830 O         1 <0>         0.0000
   7898 WAT       -37.6820  -71.9160   -5.3330 O         1 <0>         0.0000
   7899 WAT       -37.6820  -71.9160   -5.0830 O         1 <0>         0.0000
   7900 WAT       -37.6820  -71.9160   -4.8330 O         1 <0>         0.0000
   7901 WAT       -37.6820  -71.9160   -4.5830 O         1 <0>         0.0000
   7902 WAT       -37.6820  -71.9160   -4.3330 O         1 <0>         0.0000
   7903 WAT       -37.6820  -71.9160   -4.0830 O         1 <0>         0.0000
   7904 WAT       -37.6820  -71.9160   -3.8330 O         1 <0>         0.0000
   7905 WAT       -37.6820  -71.9160   -3.5830 O         1 <0>         0.0000
   7906 WAT       -37.6820  -71.9160   -3.3330 O         1 <0>         0.0000
   7907 WAT       -37.6820  -71.9160   -3.0830 O         1 <0>         0.0000
   7908 WAT       -37.6820  -71.9160   -2.8330 O         1 <0>         0.0000
   7909 WAT       -37.6820  -71.9160   -2.5830 O         1 <0>         0.0000
   7910 WAT       -37.6820  -71.9160   -2.3330 O         1 <0>         0.0000
   7911 WAT       -37.6820  -71.9160   -2.0830 O         1 <0>         0.0000
   7912 WAT       -37.6820  -71.9160   -1.8330 O         1 <0>         0.0000
   7913 WAT       -37.6820  -71.9160   -1.5830 O         1 <0>         0.0000
   7914 WAT       -37.6820  -71.9160   -1.3330 O         1 <0>         0.0000
   7915 WAT       -37.6820  -71.9160   -1.0830 O         1 <0>         0.0000
   7916 WAT       -37.6820  -71.9160   -0.8330 O         1 <0>         0.0000
   7917 WAT       -37.6820  -71.9160   -0.5830 O         1 <0>         0.0000
   7918 WAT       -37.6820  -71.9160   -0.3330 O         1 <0>         0.0000
   7919 WAT       -37.6820  -71.9160   -0.0830 O         1 <0>         0.0000
   7920 WAT       -37.6820  -71.6660   -9.8330 O         1 <0>         0.0000
   7921 WAT       -37.6820  -71.6660   -9.5830 O         1 <0>         0.0000
   7922 WAT       -37.6820  -71.6660   -9.3330 O         1 <0>         0.0000
   7923 WAT       -37.6820  -71.6660   -9.0830 O         1 <0>         0.0000
   7924 WAT       -37.6820  -71.6660   -8.8330 O         1 <0>         0.0000
   7925 WAT       -37.6820  -71.6660   -8.5830 O         1 <0>         0.0000
   7926 WAT       -37.6820  -71.6660   -8.3330 O         1 <0>         0.0000
   7927 WAT       -37.6820  -71.6660   -8.0830 O         1 <0>         0.0000
   7928 WAT       -37.6820  -71.6660   -7.8330 O         1 <0>         0.0000
   7929 WAT       -37.6820  -71.6660   -7.5830 O         1 <0>         0.0000
   7930 WAT       -37.6820  -71.6660   -7.3330 O         1 <0>         0.0000
   7931 WAT       -37.6820  -71.6660   -7.0830 O         1 <0>         0.0000
   7932 WAT       -37.6820  -71.6660   -6.8330 O         1 <0>         0.0000
   7933 WAT       -37.6820  -71.6660   -6.5830 O         1 <0>         0.0000
   7934 WAT       -37.6820  -71.6660   -6.3330 O         1 <0>         0.0000
   7935 WAT       -37.6820  -71.6660   -6.0830 O         1 <0>         0.0000
   7936 WAT       -37.6820  -71.6660   -5.8330 O         1 <0>         0.0000
   7937 WAT       -37.6820  -71.6660   -5.5830 O         1 <0>         0.0000
   7938 WAT       -37.6820  -71.6660   -5.3330 O         1 <0>         0.0000
   7939 WAT       -37.6820  -71.6660   -5.0830 O         1 <0>         0.0000
   7940 WAT       -37.6820  -71.6660   -4.8330 O         1 <0>         0.0000
   7941 WAT       -37.6820  -71.6660   -4.5830 O         1 <0>         0.0000
   7942 WAT       -37.6820  -71.6660   -4.3330 O         1 <0>         0.0000
   7943 WAT       -37.6820  -71.6660   -4.0830 O         1 <0>         0.0000
   7944 WAT       -37.6820  -71.6660   -3.8330 O         1 <0>         0.0000
   7945 WAT       -37.6820  -71.6660   -3.5830 O         1 <0>         0.0000
   7946 WAT       -37.6820  -71.6660   -3.3330 O         1 <0>         0.0000
   7947 WAT       -37.6820  -71.6660   -3.0830 O         1 <0>         0.0000
   7948 WAT       -37.6820  -71.6660   -2.8330 O         1 <0>         0.0000
   7949 WAT       -37.6820  -71.6660   -2.5830 O         1 <0>         0.0000
   7950 WAT       -37.6820  -71.6660   -2.3330 O         1 <0>         0.0000
   7951 WAT       -37.6820  -71.6660   -2.0830 O         1 <0>         0.0000
   7952 WAT       -37.6820  -71.6660   -1.8330 O         1 <0>         0.0000
   7953 WAT       -37.6820  -71.6660   -1.5830 O         1 <0>         0.0000
   7954 WAT       -37.6820  -71.6660   -1.3330 O         1 <0>         0.0000
   7955 WAT       -37.6820  -71.6660   -1.0830 O         1 <0>         0.0000
   7956 WAT       -37.6820  -71.6660   -0.8330 O         1 <0>         0.0000
   7957 WAT       -37.6820  -71.6660   -0.5830 O         1 <0>         0.0000
   7958 WAT       -37.6820  -71.6660   -0.3330 O         1 <0>         0.0000
   7959 WAT       -37.6820  -71.6660   -0.0830 O         1 <0>         0.0000
   7960 WAT       -37.6820  -71.4160   -9.8330 O         1 <0>         0.0000
   7961 WAT       -37.6820  -71.4160   -9.5830 O         1 <0>         0.0000
   7962 WAT       -37.6820  -71.4160   -9.3330 O         1 <0>         0.0000
   7963 WAT       -37.6820  -71.4160   -9.0830 O         1 <0>         0.0000
   7964 WAT       -37.6820  -71.4160   -8.8330 O         1 <0>         0.0000
   7965 WAT       -37.6820  -71.4160   -8.5830 O         1 <0>         0.0000
   7966 WAT       -37.6820  -71.4160   -8.3330 O         1 <0>         0.0000
   7967 WAT       -37.6820  -71.4160   -8.0830 O         1 <0>         0.0000
   7968 WAT       -37.6820  -71.4160   -7.8330 O         1 <0>         0.0000
   7969 WAT       -37.6820  -71.4160   -7.5830 O         1 <0>         0.0000
   7970 WAT       -37.6820  -71.4160   -7.3330 O         1 <0>         0.0000
   7971 WAT       -37.6820  -71.4160   -7.0830 O         1 <0>         0.0000
   7972 WAT       -37.6820  -71.4160   -6.8330 O         1 <0>         0.0000
   7973 WAT       -37.6820  -71.4160   -6.5830 O         1 <0>         0.0000
   7974 WAT       -37.6820  -71.4160   -6.3330 O         1 <0>         0.0000
   7975 WAT       -37.6820  -71.4160   -6.0830 O         1 <0>         0.0000
   7976 WAT       -37.6820  -71.4160   -5.8330 O         1 <0>         0.0000
   7977 WAT       -37.6820  -71.4160   -5.5830 O         1 <0>         0.0000
   7978 WAT       -37.6820  -71.4160   -5.3330 O         1 <0>         0.0000
   7979 WAT       -37.6820  -71.4160   -5.0830 O         1 <0>         0.0000
   7980 WAT       -37.6820  -71.4160   -4.8330 O         1 <0>         0.0000
   7981 WAT       -37.6820  -71.4160   -4.5830 O         1 <0>         0.0000
   7982 WAT       -37.6820  -71.4160   -4.3330 O         1 <0>         0.0000
   7983 WAT       -37.6820  -71.4160   -4.0830 O         1 <0>         0.0000
   7984 WAT       -37.6820  -71.4160   -3.8330 O         1 <0>         0.0000
   7985 WAT       -37.6820  -71.4160   -3.5830 O         1 <0>         0.0000
   7986 WAT       -37.6820  -71.4160   -3.3330 O         1 <0>         0.0000
   7987 WAT       -37.6820  -71.4160   -3.0830 O         1 <0>         0.0000
   7988 WAT       -37.6820  -71.4160   -2.8330 O         1 <0>         0.0000
   7989 WAT       -37.6820  -71.4160   -2.5830 O         1 <0>         0.0000
   7990 WAT       -37.6820  -71.4160   -2.3330 O         1 <0>         0.0000
   7991 WAT       -37.6820  -71.4160   -2.0830 O         1 <0>         0.0000
   7992 WAT       -37.6820  -71.4160   -1.8330 O         1 <0>         0.0000
   7993 WAT       -37.6820  -71.4160   -1.5830 O         1 <0>         0.0000
   7994 WAT       -37.6820  -71.4160   -1.3330 O         1 <0>         0.0000
   7995 WAT       -37.6820  -71.4160   -1.0830 O         1 <0>         0.0000
   7996 WAT       -37.6820  -71.4160   -0.8330 O         1 <0>         0.0000
   7997 WAT       -37.6820  -71.4160   -0.5830 O         1 <0>         0.0000
   7998 WAT       -37.6820  -71.4160   -0.3330 O         1 <0>         0.0000
   7999 WAT       -37.6820  -71.4160   -0.0830 O         1 <0>         0.0000
   8000 WAT       -37.6820  -71.1660   -9.8330 O         1 <0>         0.0000
   8001 WAT       -37.6820  -71.1660   -9.5830 O         1 <0>         0.0000
   8002 WAT       -37.6820  -71.1660   -9.3330 O         1 <0>         0.0000
   8003 WAT       -37.6820  -71.1660   -9.0830 O         1 <0>         0.0000
   8004 WAT       -37.6820  -71.1660   -8.8330 O         1 <0>         0.0000
   8005 WAT       -37.6820  -71.1660   -8.5830 O         1 <0>         0.0000
   8006 WAT       -37.6820  -71.1660   -8.3330 O         1 <0>         0.0000
   8007 WAT       -37.6820  -71.1660   -8.0830 O         1 <0>         0.0000
   8008 WAT       -37.6820  -71.1660   -7.8330 O         1 <0>         0.0000
   8009 WAT       -37.6820  -71.1660   -7.5830 O         1 <0>         0.0000
   8010 WAT       -37.6820  -71.1660   -7.3330 O         1 <0>         0.0000
   8011 WAT       -37.6820  -71.1660   -7.0830 O         1 <0>         0.0000
   8012 WAT       -37.6820  -71.1660   -6.8330 O         1 <0>         0.0000
   8013 WAT       -37.6820  -71.1660   -6.5830 O         1 <0>         0.0000
   8014 WAT       -37.6820  -71.1660   -6.3330 O         1 <0>         0.0000
   8015 WAT       -37.6820  -71.1660   -6.0830 O         1 <0>         0.0000
   8016 WAT       -37.6820  -71.1660   -5.8330 O         1 <0>         0.0000
   8017 WAT       -37.6820  -71.1660   -5.5830 O         1 <0>         0.0000
   8018 WAT       -37.6820  -71.1660   -5.3330 O         1 <0>         0.0000
   8019 WAT       -37.6820  -71.1660   -5.0830 O         1 <0>         0.0000
   8020 WAT       -37.6820  -71.1660   -4.8330 O         1 <0>         0.0000
   8021 WAT       -37.6820  -71.1660   -4.5830 O         1 <0>         0.0000
   8022 WAT       -37.6820  -71.1660   -4.3330 O         1 <0>         0.0000
   8023 WAT       -37.6820  -71.1660   -4.0830 O         1 <0>         0.0000
   8024 WAT       -37.6820  -71.1660   -3.8330 O         1 <0>         0.0000
   8025 WAT       -37.6820  -71.1660   -3.5830 O         1 <0>         0.0000
   8026 WAT       -37.6820  -71.1660   -3.3330 O         1 <0>         0.0000
   8027 WAT       -37.6820  -71.1660   -3.0830 O         1 <0>         0.0000
   8028 WAT       -37.6820  -71.1660   -2.8330 O         1 <0>         0.0000
   8029 WAT       -37.6820  -71.1660   -2.5830 O         1 <0>         0.0000
   8030 WAT       -37.6820  -71.1660   -2.3330 O         1 <0>         0.0000
   8031 WAT       -37.6820  -71.1660   -2.0830 O         1 <0>         0.0000
   8032 WAT       -37.6820  -71.1660   -1.8330 O         1 <0>         0.0000
   8033 WAT       -37.6820  -71.1660   -1.5830 O         1 <0>         0.0000
   8034 WAT       -37.6820  -71.1660   -1.3330 O         1 <0>         0.0000
   8035 WAT       -37.6820  -71.1660   -1.0830 O         1 <0>         0.0000
   8036 WAT       -37.6820  -71.1660   -0.8330 O         1 <0>         0.0000
   8037 WAT       -37.6820  -71.1660   -0.5830 O         1 <0>         0.0000
   8038 WAT       -37.6820  -71.1660   -0.3330 O         1 <0>         0.0000
   8039 WAT       -37.6820  -71.1660   -0.0830 O         1 <0>         0.0000
   8040 WAT       -37.6820  -70.9160   -9.8330 O         1 <0>         0.0000
   8041 WAT       -37.6820  -70.9160   -9.5830 O         1 <0>         0.0000
   8042 WAT       -37.6820  -70.9160   -9.3330 O         1 <0>         0.0000
   8043 WAT       -37.6820  -70.9160   -9.0830 O         1 <0>         0.0000
   8044 WAT       -37.6820  -70.9160   -8.8330 O         1 <0>         0.0000
   8045 WAT       -37.6820  -70.9160   -8.5830 O         1 <0>         0.0000
   8046 WAT       -37.6820  -70.9160   -8.3330 O         1 <0>         0.0000
   8047 WAT       -37.6820  -70.9160   -8.0830 O         1 <0>         0.0000
   8048 WAT       -37.6820  -70.9160   -7.8330 O         1 <0>         0.0000
   8049 WAT       -37.6820  -70.9160   -7.5830 O         1 <0>         0.0000
   8050 WAT       -37.6820  -70.9160   -7.3330 O         1 <0>         0.0000
   8051 WAT       -37.6820  -70.9160   -7.0830 O         1 <0>         0.0000
   8052 WAT       -37.6820  -70.9160   -6.8330 O         1 <0>         0.0000
   8053 WAT       -37.6820  -70.9160   -6.5830 O         1 <0>         0.0000
   8054 WAT       -37.6820  -70.9160   -6.3330 O         1 <0>         0.0000
   8055 WAT       -37.6820  -70.9160   -6.0830 O         1 <0>         0.0000
   8056 WAT       -37.6820  -70.9160   -5.8330 O         1 <0>         0.0000
   8057 WAT       -37.6820  -70.9160   -5.5830 O         1 <0>         0.0000
   8058 WAT       -37.6820  -70.9160   -5.3330 O         1 <0>         0.0000
   8059 WAT       -37.6820  -70.9160   -5.0830 O         1 <0>         0.0000
   8060 WAT       -37.6820  -70.9160   -4.8330 O         1 <0>         0.0000
   8061 WAT       -37.6820  -70.9160   -4.5830 O         1 <0>         0.0000
   8062 WAT       -37.6820  -70.9160   -4.3330 O         1 <0>         0.0000
   8063 WAT       -37.6820  -70.9160   -4.0830 O         1 <0>         0.0000
   8064 WAT       -37.6820  -70.9160   -3.8330 O         1 <0>         0.0000
   8065 WAT       -37.6820  -70.9160   -3.5830 O         1 <0>         0.0000
   8066 WAT       -37.6820  -70.9160   -3.3330 O         1 <0>         0.0000
   8067 WAT       -37.6820  -70.9160   -3.0830 O         1 <0>         0.0000
   8068 WAT       -37.6820  -70.9160   -2.8330 O         1 <0>         0.0000
   8069 WAT       -37.6820  -70.9160   -2.5830 O         1 <0>         0.0000
   8070 WAT       -37.6820  -70.9160   -2.3330 O         1 <0>         0.0000
   8071 WAT       -37.6820  -70.9160   -2.0830 O         1 <0>         0.0000
   8072 WAT       -37.6820  -70.9160   -1.8330 O         1 <0>         0.0000
   8073 WAT       -37.6820  -70.9160   -1.5830 O         1 <0>         0.0000
   8074 WAT       -37.6820  -70.9160   -1.3330 O         1 <0>         0.0000
   8075 WAT       -37.6820  -70.9160   -1.0830 O         1 <0>         0.0000
   8076 WAT       -37.6820  -70.9160   -0.8330 O         1 <0>         0.0000
   8077 WAT       -37.6820  -70.9160   -0.5830 O         1 <0>         0.0000
   8078 WAT       -37.6820  -70.9160   -0.3330 O         1 <0>         0.0000
   8079 WAT       -37.6820  -70.9160   -0.0830 O         1 <0>         0.0000
   8080 WAT       -37.6820  -70.6660   -9.8330 O         1 <0>         0.0000
   8081 WAT       -37.6820  -70.6660   -9.5830 O         1 <0>         0.0000
   8082 WAT       -37.6820  -70.6660   -9.3330 O         1 <0>         0.0000
   8083 WAT       -37.6820  -70.6660   -9.0830 O         1 <0>         0.0000
   8084 WAT       -37.6820  -70.6660   -8.8330 O         1 <0>         0.0000
   8085 WAT       -37.6820  -70.6660   -8.5830 O         1 <0>         0.0000
   8086 WAT       -37.6820  -70.6660   -8.3330 O         1 <0>         0.0000
   8087 WAT       -37.6820  -70.6660   -8.0830 O         1 <0>         0.0000
   8088 WAT       -37.6820  -70.6660   -7.8330 O         1 <0>         0.0000
   8089 WAT       -37.6820  -70.6660   -7.5830 O         1 <0>         0.0000
   8090 WAT       -37.6820  -70.6660   -7.3330 O         1 <0>         0.0000
   8091 WAT       -37.6820  -70.6660   -7.0830 O         1 <0>         0.0000
   8092 WAT       -37.6820  -70.6660   -6.8330 O         1 <0>         0.0000
   8093 WAT       -37.6820  -70.6660   -6.5830 O         1 <0>         0.0000
   8094 WAT       -37.6820  -70.6660   -6.3330 O         1 <0>         0.0000
   8095 WAT       -37.6820  -70.6660   -6.0830 O         1 <0>         0.0000
   8096 WAT       -37.6820  -70.6660   -5.8330 O         1 <0>         0.0000
   8097 WAT       -37.6820  -70.6660   -5.5830 O         1 <0>         0.0000
   8098 WAT       -37.6820  -70.6660   -5.3330 O         1 <0>         0.0000
   8099 WAT       -37.6820  -70.6660   -5.0830 O         1 <0>         0.0000
   8100 WAT       -37.6820  -70.6660   -4.8330 O         1 <0>         0.0000
   8101 WAT       -37.6820  -70.6660   -4.5830 O         1 <0>         0.0000
   8102 WAT       -37.6820  -70.6660   -4.3330 O         1 <0>         0.0000
   8103 WAT       -37.6820  -70.6660   -4.0830 O         1 <0>         0.0000
   8104 WAT       -37.6820  -70.6660   -3.8330 O         1 <0>         0.0000
   8105 WAT       -37.6820  -70.6660   -3.5830 O         1 <0>         0.0000
   8106 WAT       -37.6820  -70.6660   -3.3330 O         1 <0>         0.0000
   8107 WAT       -37.6820  -70.6660   -3.0830 O         1 <0>         0.0000
   8108 WAT       -37.6820  -70.6660   -2.8330 O         1 <0>         0.0000
   8109 WAT       -37.6820  -70.6660   -2.5830 O         1 <0>         0.0000
   8110 WAT       -37.6820  -70.6660   -2.3330 O         1 <0>         0.0000
   8111 WAT       -37.6820  -70.6660   -2.0830 O         1 <0>         0.0000
   8112 WAT       -37.6820  -70.6660   -1.8330 O         1 <0>         0.0000
   8113 WAT       -37.6820  -70.6660   -1.5830 O         1 <0>         0.0000
   8114 WAT       -37.6820  -70.6660   -1.3330 O         1 <0>         0.0000
   8115 WAT       -37.6820  -70.6660   -1.0830 O         1 <0>         0.0000
   8116 WAT       -37.6820  -70.6660   -0.8330 O         1 <0>         0.0000
   8117 WAT       -37.6820  -70.6660   -0.5830 O         1 <0>         0.0000
   8118 WAT       -37.6820  -70.6660   -0.3330 O         1 <0>         0.0000
   8119 WAT       -37.6820  -70.6660   -0.0830 O         1 <0>         0.0000
   8120 WAT       -37.6820  -70.4160   -9.8330 O         1 <0>         0.0000
   8121 WAT       -37.6820  -70.4160   -9.5830 O         1 <0>         0.0000
   8122 WAT       -37.6820  -70.4160   -9.3330 O         1 <0>         0.0000
   8123 WAT       -37.6820  -70.4160   -9.0830 O         1 <0>         0.0000
   8124 WAT       -37.6820  -70.4160   -8.8330 O         1 <0>         0.0000
   8125 WAT       -37.6820  -70.4160   -8.5830 O         1 <0>         0.0000
   8126 WAT       -37.6820  -70.4160   -8.3330 O         1 <0>         0.0000
   8127 WAT       -37.6820  -70.4160   -8.0830 O         1 <0>         0.0000
   8128 WAT       -37.6820  -70.4160   -7.8330 O         1 <0>         0.0000
   8129 WAT       -37.6820  -70.4160   -7.5830 O         1 <0>         0.0000
   8130 WAT       -37.6820  -70.4160   -7.3330 O         1 <0>         0.0000
   8131 WAT       -37.6820  -70.4160   -7.0830 O         1 <0>         0.0000
   8132 WAT       -37.6820  -70.4160   -6.8330 O         1 <0>         0.0000
   8133 WAT       -37.6820  -70.4160   -6.5830 O         1 <0>         0.0000
   8134 WAT       -37.6820  -70.4160   -6.3330 O         1 <0>         0.0000
   8135 WAT       -37.6820  -70.4160   -6.0830 O         1 <0>         0.0000
   8136 WAT       -37.6820  -70.4160   -5.8330 O         1 <0>         0.0000
   8137 WAT       -37.6820  -70.4160   -5.5830 O         1 <0>         0.0000
   8138 WAT       -37.6820  -70.4160   -5.3330 O         1 <0>         0.0000
   8139 WAT       -37.6820  -70.4160   -5.0830 O         1 <0>         0.0000
   8140 WAT       -37.6820  -70.4160   -4.8330 O         1 <0>         0.0000
   8141 WAT       -37.6820  -70.4160   -4.5830 O         1 <0>         0.0000
   8142 WAT       -37.6820  -70.4160   -4.3330 O         1 <0>         0.0000
   8143 WAT       -37.6820  -70.4160   -4.0830 O         1 <0>         0.0000
   8144 WAT       -37.6820  -70.4160   -3.8330 O         1 <0>         0.0000
   8145 WAT       -37.6820  -70.4160   -3.5830 O         1 <0>         0.0000
   8146 WAT       -37.6820  -70.4160   -3.3330 O         1 <0>         0.0000
   8147 WAT       -37.6820  -70.4160   -3.0830 O         1 <0>         0.0000
   8148 WAT       -37.6820  -70.4160   -2.8330 O         1 <0>         0.0000
   8149 WAT       -37.6820  -70.4160   -2.5830 O         1 <0>         0.0000
   8150 WAT       -37.6820  -70.4160   -2.3330 O         1 <0>         0.0000
   8151 WAT       -37.6820  -70.4160   -2.0830 O         1 <0>         0.0000
   8152 WAT       -37.6820  -70.4160   -1.8330 O         1 <0>         0.0000
   8153 WAT       -37.6820  -70.4160   -1.5830 O         1 <0>         0.0000
   8154 WAT       -37.6820  -70.4160   -1.3330 O         1 <0>         0.0000
   8155 WAT       -37.6820  -70.4160   -1.0830 O         1 <0>         0.0000
   8156 WAT       -37.6820  -70.4160   -0.8330 O         1 <0>         0.0000
   8157 WAT       -37.6820  -70.4160   -0.5830 O         1 <0>         0.0000
   8158 WAT       -37.6820  -70.4160   -0.3330 O         1 <0>         0.0000
   8159 WAT       -37.6820  -70.4160   -0.0830 O         1 <0>         0.0000
   8160 WAT       -37.6820  -70.1660   -9.8330 O         1 <0>         0.0000
   8161 WAT       -37.6820  -70.1660   -9.5830 O         1 <0>         0.0000
   8162 WAT       -37.6820  -70.1660   -9.3330 O         1 <0>         0.0000
   8163 WAT       -37.6820  -70.1660   -9.0830 O         1 <0>         0.0000
   8164 WAT       -37.6820  -70.1660   -8.8330 O         1 <0>         0.0000
   8165 WAT       -37.6820  -70.1660   -8.5830 O         1 <0>         0.0000
   8166 WAT       -37.6820  -70.1660   -8.3330 O         1 <0>         0.0000
   8167 WAT       -37.6820  -70.1660   -8.0830 O         1 <0>         0.0000
   8168 WAT       -37.6820  -70.1660   -7.8330 O         1 <0>         0.0000
   8169 WAT       -37.6820  -70.1660   -7.5830 O         1 <0>         0.0000
   8170 WAT       -37.6820  -70.1660   -7.3330 O         1 <0>         0.0000
   8171 WAT       -37.6820  -70.1660   -7.0830 O         1 <0>         0.0000
   8172 WAT       -37.6820  -70.1660   -6.8330 O         1 <0>         0.0000
   8173 WAT       -37.6820  -70.1660   -6.5830 O         1 <0>         0.0000
   8174 WAT       -37.6820  -70.1660   -6.3330 O         1 <0>         0.0000
   8175 WAT       -37.6820  -70.1660   -6.0830 O         1 <0>         0.0000
   8176 WAT       -37.6820  -70.1660   -5.8330 O         1 <0>         0.0000
   8177 WAT       -37.6820  -70.1660   -5.5830 O         1 <0>         0.0000
   8178 WAT       -37.6820  -70.1660   -5.3330 O         1 <0>         0.0000
   8179 WAT       -37.6820  -70.1660   -5.0830 O         1 <0>         0.0000
   8180 WAT       -37.6820  -70.1660   -4.8330 O         1 <0>         0.0000
   8181 WAT       -37.6820  -70.1660   -4.5830 O         1 <0>         0.0000
   8182 WAT       -37.6820  -70.1660   -4.3330 O         1 <0>         0.0000
   8183 WAT       -37.6820  -70.1660   -4.0830 O         1 <0>         0.0000
   8184 WAT       -37.6820  -70.1660   -3.8330 O         1 <0>         0.0000
   8185 WAT       -37.6820  -70.1660   -3.5830 O         1 <0>         0.0000
   8186 WAT       -37.6820  -70.1660   -3.3330 O         1 <0>         0.0000
   8187 WAT       -37.6820  -70.1660   -3.0830 O         1 <0>         0.0000
   8188 WAT       -37.6820  -70.1660   -2.8330 O         1 <0>         0.0000
   8189 WAT       -37.6820  -70.1660   -2.5830 O         1 <0>         0.0000
   8190 WAT       -37.6820  -70.1660   -2.3330 O         1 <0>         0.0000
   8191 WAT       -37.6820  -70.1660   -2.0830 O         1 <0>         0.0000
   8192 WAT       -37.6820  -70.1660   -1.8330 O         1 <0>         0.0000
   8193 WAT       -37.6820  -70.1660   -1.5830 O         1 <0>         0.0000
   8194 WAT       -37.6820  -70.1660   -1.3330 O         1 <0>         0.0000
   8195 WAT       -37.6820  -70.1660   -1.0830 O         1 <0>         0.0000
   8196 WAT       -37.6820  -70.1660   -0.8330 O         1 <0>         0.0000
   8197 WAT       -37.6820  -70.1660   -0.5830 O         1 <0>         0.0000
   8198 WAT       -37.6820  -70.1660   -0.3330 O         1 <0>         0.0000
   8199 WAT       -37.6820  -70.1660   -0.0830 O         1 <0>         0.0000
   8200 WAT       -37.6820  -69.9160   -9.8330 O         1 <0>         0.0000
   8201 WAT       -37.6820  -69.9160   -9.5830 O         1 <0>         0.0000
   8202 WAT       -37.6820  -69.9160   -9.3330 O         1 <0>         0.0000
   8203 WAT       -37.6820  -69.9160   -9.0830 O         1 <0>         0.0000
   8204 WAT       -37.6820  -69.9160   -8.8330 O         1 <0>         0.0000
   8205 WAT       -37.6820  -69.9160   -8.5830 O         1 <0>         0.0000
   8206 WAT       -37.6820  -69.9160   -8.3330 O         1 <0>         0.0000
   8207 WAT       -37.6820  -69.9160   -8.0830 O         1 <0>         0.0000
   8208 WAT       -37.6820  -69.9160   -7.8330 O         1 <0>         0.0000
   8209 WAT       -37.6820  -69.9160   -7.5830 O         1 <0>         0.0000
   8210 WAT       -37.6820  -69.9160   -7.3330 O         1 <0>         0.0000
   8211 WAT       -37.6820  -69.9160   -7.0830 O         1 <0>         0.0000
   8212 WAT       -37.6820  -69.9160   -6.8330 O         1 <0>         0.0000
   8213 WAT       -37.6820  -69.9160   -6.5830 O         1 <0>         0.0000
   8214 WAT       -37.6820  -69.9160   -6.3330 O         1 <0>         0.0000
   8215 WAT       -37.6820  -69.9160   -6.0830 O         1 <0>         0.0000
   8216 WAT       -37.6820  -69.9160   -5.8330 O         1 <0>         0.0000
   8217 WAT       -37.6820  -69.9160   -5.5830 O         1 <0>         0.0000
   8218 WAT       -37.6820  -69.9160   -5.3330 O         1 <0>         0.0000
   8219 WAT       -37.6820  -69.9160   -5.0830 O         1 <0>         0.0000
   8220 WAT       -37.6820  -69.9160   -4.8330 O         1 <0>         0.0000
   8221 WAT       -37.6820  -69.9160   -4.5830 O         1 <0>         0.0000
   8222 WAT       -37.6820  -69.9160   -4.3330 O         1 <0>         0.0000
   8223 WAT       -37.6820  -69.9160   -4.0830 O         1 <0>         0.0000
   8224 WAT       -37.6820  -69.9160   -3.8330 O         1 <0>         0.0000
   8225 WAT       -37.6820  -69.9160   -3.5830 O         1 <0>         0.0000
   8226 WAT       -37.6820  -69.9160   -3.3330 O         1 <0>         0.0000
   8227 WAT       -37.6820  -69.9160   -3.0830 O         1 <0>         0.0000
   8228 WAT       -37.6820  -69.9160   -2.8330 O         1 <0>         0.0000
   8229 WAT       -37.6820  -69.9160   -2.5830 O         1 <0>         0.0000
   8230 WAT       -37.6820  -69.9160   -2.3330 O         1 <0>         0.0000
   8231 WAT       -37.6820  -69.9160   -2.0830 O         1 <0>         0.0000
   8232 WAT       -37.6820  -69.9160   -1.8330 O         1 <0>         0.0000
   8233 WAT       -37.6820  -69.9160   -1.5830 O         1 <0>         0.0000
   8234 WAT       -37.6820  -69.9160   -1.3330 O         1 <0>         0.0000
   8235 WAT       -37.6820  -69.9160   -1.0830 O         1 <0>         0.0000
   8236 WAT       -37.6820  -69.9160   -0.8330 O         1 <0>         0.0000
   8237 WAT       -37.6820  -69.9160   -0.5830 O         1 <0>         0.0000
   8238 WAT       -37.6820  -69.9160   -0.3330 O         1 <0>         0.0000
   8239 WAT       -37.6820  -69.9160   -0.0830 O         1 <0>         0.0000
   8240 WAT       -37.6820  -69.6660   -9.8330 O         1 <0>         0.0000
   8241 WAT       -37.6820  -69.6660   -9.5830 O         1 <0>         0.0000
   8242 WAT       -37.6820  -69.6660   -9.3330 O         1 <0>         0.0000
   8243 WAT       -37.6820  -69.6660   -9.0830 O         1 <0>         0.0000
   8244 WAT       -37.6820  -69.6660   -8.8330 O         1 <0>         0.0000
   8245 WAT       -37.6820  -69.6660   -8.5830 O         1 <0>         0.0000
   8246 WAT       -37.6820  -69.6660   -8.3330 O         1 <0>         0.0000
   8247 WAT       -37.6820  -69.6660   -8.0830 O         1 <0>         0.0000
   8248 WAT       -37.6820  -69.6660   -7.8330 O         1 <0>         0.0000
   8249 WAT       -37.6820  -69.6660   -7.5830 O         1 <0>         0.0000
   8250 WAT       -37.6820  -69.6660   -7.3330 O         1 <0>         0.0000
   8251 WAT       -37.6820  -69.6660   -7.0830 O         1 <0>         0.0000
   8252 WAT       -37.6820  -69.6660   -6.8330 O         1 <0>         0.0000
   8253 WAT       -37.6820  -69.6660   -6.5830 O         1 <0>         0.0000
   8254 WAT       -37.6820  -69.6660   -6.3330 O         1 <0>         0.0000
   8255 WAT       -37.6820  -69.6660   -6.0830 O         1 <0>         0.0000
   8256 WAT       -37.6820  -69.6660   -5.8330 O         1 <0>         0.0000
   8257 WAT       -37.6820  -69.6660   -5.5830 O         1 <0>         0.0000
   8258 WAT       -37.6820  -69.6660   -5.3330 O         1 <0>         0.0000
   8259 WAT       -37.6820  -69.6660   -5.0830 O         1 <0>         0.0000
   8260 WAT       -37.6820  -69.6660   -4.8330 O         1 <0>         0.0000
   8261 WAT       -37.6820  -69.6660   -4.5830 O         1 <0>         0.0000
   8262 WAT       -37.6820  -69.6660   -4.3330 O         1 <0>         0.0000
   8263 WAT       -37.6820  -69.6660   -4.0830 O         1 <0>         0.0000
   8264 WAT       -37.6820  -69.6660   -3.8330 O         1 <0>         0.0000
   8265 WAT       -37.6820  -69.6660   -3.5830 O         1 <0>         0.0000
   8266 WAT       -37.6820  -69.6660   -3.3330 O         1 <0>         0.0000
   8267 WAT       -37.6820  -69.6660   -3.0830 O         1 <0>         0.0000
   8268 WAT       -37.6820  -69.6660   -2.8330 O         1 <0>         0.0000
   8269 WAT       -37.6820  -69.6660   -2.5830 O         1 <0>         0.0000
   8270 WAT       -37.6820  -69.6660   -2.3330 O         1 <0>         0.0000
   8271 WAT       -37.6820  -69.6660   -2.0830 O         1 <0>         0.0000
   8272 WAT       -37.6820  -69.6660   -1.8330 O         1 <0>         0.0000
   8273 WAT       -37.6820  -69.6660   -1.5830 O         1 <0>         0.0000
   8274 WAT       -37.6820  -69.6660   -1.3330 O         1 <0>         0.0000
   8275 WAT       -37.6820  -69.6660   -1.0830 O         1 <0>         0.0000
   8276 WAT       -37.6820  -69.6660   -0.8330 O         1 <0>         0.0000
   8277 WAT       -37.6820  -69.6660   -0.5830 O         1 <0>         0.0000
   8278 WAT       -37.6820  -69.6660   -0.3330 O         1 <0>         0.0000
   8279 WAT       -37.6820  -69.6660   -0.0830 O         1 <0>         0.0000
   8280 WAT       -37.6820  -69.4160   -9.8330 O         1 <0>         0.0000
   8281 WAT       -37.6820  -69.4160   -9.5830 O         1 <0>         0.0000
   8282 WAT       -37.6820  -69.4160   -9.3330 O         1 <0>         0.0000
   8283 WAT       -37.6820  -69.4160   -9.0830 O         1 <0>         0.0000
   8284 WAT       -37.6820  -69.4160   -8.8330 O         1 <0>         0.0000
   8285 WAT       -37.6820  -69.4160   -8.5830 O         1 <0>         0.0000
   8286 WAT       -37.6820  -69.4160   -8.3330 O         1 <0>         0.0000
   8287 WAT       -37.6820  -69.4160   -8.0830 O         1 <0>         0.0000
   8288 WAT       -37.6820  -69.4160   -7.8330 O         1 <0>         0.0000
   8289 WAT       -37.6820  -69.4160   -7.5830 O         1 <0>         0.0000
   8290 WAT       -37.6820  -69.4160   -7.3330 O         1 <0>         0.0000
   8291 WAT       -37.6820  -69.4160   -7.0830 O         1 <0>         0.0000
   8292 WAT       -37.6820  -69.4160   -6.8330 O         1 <0>         0.0000
   8293 WAT       -37.6820  -69.4160   -6.5830 O         1 <0>         0.0000
   8294 WAT       -37.6820  -69.4160   -6.3330 O         1 <0>         0.0000
   8295 WAT       -37.6820  -69.4160   -6.0830 O         1 <0>         0.0000
   8296 WAT       -37.6820  -69.4160   -5.8330 O         1 <0>         0.0000
   8297 WAT       -37.6820  -69.4160   -5.5830 O         1 <0>         0.0000
   8298 WAT       -37.6820  -69.4160   -5.3330 O         1 <0>         0.0000
   8299 WAT       -37.6820  -69.4160   -5.0830 O         1 <0>         0.0000
   8300 WAT       -37.6820  -69.4160   -4.8330 O         1 <0>         0.0000
   8301 WAT       -37.6820  -69.4160   -4.5830 O         1 <0>         0.0000
   8302 WAT       -37.6820  -69.4160   -4.3330 O         1 <0>         0.0000
   8303 WAT       -37.6820  -69.4160   -4.0830 O         1 <0>         0.0000
   8304 WAT       -37.6820  -69.4160   -3.8330 O         1 <0>         0.0000
   8305 WAT       -37.6820  -69.4160   -3.5830 O         1 <0>         0.0000
   8306 WAT       -37.6820  -69.4160   -3.3330 O         1 <0>         0.0000
   8307 WAT       -37.6820  -69.4160   -3.0830 O         1 <0>         0.0000
   8308 WAT       -37.6820  -69.4160   -2.8330 O         1 <0>         0.0000
   8309 WAT       -37.6820  -69.4160   -2.5830 O         1 <0>         0.0000
   8310 WAT       -37.6820  -69.4160   -2.3330 O         1 <0>         0.0000
   8311 WAT       -37.6820  -69.4160   -2.0830 O         1 <0>         0.0000
   8312 WAT       -37.6820  -69.4160   -1.8330 O         1 <0>         0.0000
   8313 WAT       -37.6820  -69.4160   -1.5830 O         1 <0>         0.0000
   8314 WAT       -37.6820  -69.4160   -1.3330 O         1 <0>         0.0000
   8315 WAT       -37.6820  -69.4160   -1.0830 O         1 <0>         0.0000
   8316 WAT       -37.6820  -69.4160   -0.8330 O         1 <0>         0.0000
   8317 WAT       -37.6820  -69.4160   -0.5830 O         1 <0>         0.0000
   8318 WAT       -37.6820  -69.4160   -0.3330 O         1 <0>         0.0000
   8319 WAT       -37.6820  -69.4160   -0.0830 O         1 <0>         0.0000
   8320 WAT       -37.6820  -69.1660   -9.8330 O         1 <0>         0.0000
   8321 WAT       -37.6820  -69.1660   -9.5830 O         1 <0>         0.0000
   8322 WAT       -37.6820  -69.1660   -9.3330 O         1 <0>         0.0000
   8323 WAT       -37.6820  -69.1660   -9.0830 O         1 <0>         0.0000
   8324 WAT       -37.6820  -69.1660   -8.8330 O         1 <0>         0.0000
   8325 WAT       -37.6820  -69.1660   -8.5830 O         1 <0>         0.0000
   8326 WAT       -37.6820  -69.1660   -8.3330 O         1 <0>         0.0000
   8327 WAT       -37.6820  -69.1660   -8.0830 O         1 <0>         0.0000
   8328 WAT       -37.6820  -69.1660   -7.8330 O         1 <0>         0.0000
   8329 WAT       -37.6820  -69.1660   -7.5830 O         1 <0>         0.0000
   8330 WAT       -37.6820  -69.1660   -7.3330 O         1 <0>         0.0000
   8331 WAT       -37.6820  -69.1660   -7.0830 O         1 <0>         0.0000
   8332 WAT       -37.6820  -69.1660   -6.8330 O         1 <0>         0.0000
   8333 WAT       -37.6820  -69.1660   -6.5830 O         1 <0>         0.0000
   8334 WAT       -37.6820  -69.1660   -6.3330 O         1 <0>         0.0000
   8335 WAT       -37.6820  -69.1660   -6.0830 O         1 <0>         0.0000
   8336 WAT       -37.6820  -69.1660   -5.8330 O         1 <0>         0.0000
   8337 WAT       -37.6820  -69.1660   -5.5830 O         1 <0>         0.0000
   8338 WAT       -37.6820  -69.1660   -5.3330 O         1 <0>         0.0000
   8339 WAT       -37.6820  -69.1660   -5.0830 O         1 <0>         0.0000
   8340 WAT       -37.6820  -69.1660   -4.8330 O         1 <0>         0.0000
   8341 WAT       -37.6820  -69.1660   -4.5830 O         1 <0>         0.0000
   8342 WAT       -37.6820  -69.1660   -4.3330 O         1 <0>         0.0000
   8343 WAT       -37.6820  -69.1660   -4.0830 O         1 <0>         0.0000
   8344 WAT       -37.6820  -69.1660   -3.8330 O         1 <0>         0.0000
   8345 WAT       -37.6820  -69.1660   -3.5830 O         1 <0>         0.0000
   8346 WAT       -37.6820  -69.1660   -3.3330 O         1 <0>         0.0000
   8347 WAT       -37.6820  -69.1660   -3.0830 O         1 <0>         0.0000
   8348 WAT       -37.6820  -69.1660   -2.8330 O         1 <0>         0.0000
   8349 WAT       -37.6820  -69.1660   -2.5830 O         1 <0>         0.0000
   8350 WAT       -37.6820  -69.1660   -2.3330 O         1 <0>         0.0000
   8351 WAT       -37.6820  -69.1660   -2.0830 O         1 <0>         0.0000
   8352 WAT       -37.6820  -69.1660   -1.8330 O         1 <0>         0.0000
   8353 WAT       -37.6820  -69.1660   -1.5830 O         1 <0>         0.0000
   8354 WAT       -37.6820  -69.1660   -1.3330 O         1 <0>         0.0000
   8355 WAT       -37.6820  -69.1660   -1.0830 O         1 <0>         0.0000
   8356 WAT       -37.6820  -69.1660   -0.8330 O         1 <0>         0.0000
   8357 WAT       -37.6820  -69.1660   -0.5830 O         1 <0>         0.0000
   8358 WAT       -37.6820  -69.1660   -0.3330 O         1 <0>         0.0000
   8359 WAT       -37.6820  -69.1660   -0.0830 O         1 <0>         0.0000
   8360 WAT       -37.6820  -68.9160   -9.8330 O         1 <0>         0.0000
   8361 WAT       -37.6820  -68.9160   -9.5830 O         1 <0>         0.0000
   8362 WAT       -37.6820  -68.9160   -9.3330 O         1 <0>         0.0000
   8363 WAT       -37.6820  -68.9160   -9.0830 O         1 <0>         0.0000
   8364 WAT       -37.6820  -68.9160   -8.8330 O         1 <0>         0.0000
   8365 WAT       -37.6820  -68.9160   -8.5830 O         1 <0>         0.0000
   8366 WAT       -37.6820  -68.9160   -8.3330 O         1 <0>         0.0000
   8367 WAT       -37.6820  -68.9160   -8.0830 O         1 <0>         0.0000
   8368 WAT       -37.6820  -68.9160   -7.8330 O         1 <0>         0.0000
   8369 WAT       -37.6820  -68.9160   -7.5830 O         1 <0>         0.0000
   8370 WAT       -37.6820  -68.9160   -7.3330 O         1 <0>         0.0000
   8371 WAT       -37.6820  -68.9160   -7.0830 O         1 <0>         0.0000
   8372 WAT       -37.6820  -68.9160   -6.8330 O         1 <0>         0.0000
   8373 WAT       -37.6820  -68.9160   -6.5830 O         1 <0>         0.0000
   8374 WAT       -37.6820  -68.9160   -6.3330 O         1 <0>         0.0000
   8375 WAT       -37.6820  -68.9160   -6.0830 O         1 <0>         0.0000
   8376 WAT       -37.6820  -68.9160   -5.8330 O         1 <0>         0.0000
   8377 WAT       -37.6820  -68.9160   -5.5830 O         1 <0>         0.0000
   8378 WAT       -37.6820  -68.9160   -5.3330 O         1 <0>         0.0000
   8379 WAT       -37.6820  -68.9160   -5.0830 O         1 <0>         0.0000
   8380 WAT       -37.6820  -68.9160   -4.8330 O         1 <0>         0.0000
   8381 WAT       -37.6820  -68.9160   -4.5830 O         1 <0>         0.0000
   8382 WAT       -37.6820  -68.9160   -4.3330 O         1 <0>         0.0000
   8383 WAT       -37.6820  -68.9160   -4.0830 O         1 <0>         0.0000
   8384 WAT       -37.6820  -68.9160   -3.8330 O         1 <0>         0.0000
   8385 WAT       -37.6820  -68.9160   -3.5830 O         1 <0>         0.0000
   8386 WAT       -37.6820  -68.9160   -3.3330 O         1 <0>         0.0000
   8387 WAT       -37.6820  -68.9160   -3.0830 O         1 <0>         0.0000
   8388 WAT       -37.6820  -68.9160   -2.8330 O         1 <0>         0.0000
   8389 WAT       -37.6820  -68.9160   -2.5830 O         1 <0>         0.0000
   8390 WAT       -37.6820  -68.9160   -2.3330 O         1 <0>         0.0000
   8391 WAT       -37.6820  -68.9160   -2.0830 O         1 <0>         0.0000
   8392 WAT       -37.6820  -68.9160   -1.8330 O         1 <0>         0.0000
   8393 WAT       -37.6820  -68.9160   -1.5830 O         1 <0>         0.0000
   8394 WAT       -37.6820  -68.9160   -1.3330 O         1 <0>         0.0000
   8395 WAT       -37.6820  -68.9160   -1.0830 O         1 <0>         0.0000
   8396 WAT       -37.6820  -68.9160   -0.8330 O         1 <0>         0.0000
   8397 WAT       -37.6820  -68.9160   -0.5830 O         1 <0>         0.0000
   8398 WAT       -37.6820  -68.9160   -0.3330 O         1 <0>         0.0000
   8399 WAT       -37.6820  -68.9160   -0.0830 O         1 <0>         0.0000
   8400 WAT       -37.4320  -77.4160   -9.8330 O         1 <0>         0.0000
   8401 WAT       -37.4320  -77.4160   -9.5830 O         1 <0>         0.0000
   8402 WAT       -37.4320  -77.4160   -9.3330 O         1 <0>         0.0000
   8403 WAT       -37.4320  -77.4160   -9.0830 O         1 <0>         0.0000
   8404 WAT       -37.4320  -77.4160   -8.8330 O         1 <0>         0.0000
   8405 WAT       -37.4320  -77.4160   -8.5830 O         1 <0>         0.0000
   8406 WAT       -37.4320  -77.4160   -8.3330 O         1 <0>         0.0000
   8407 WAT       -37.4320  -77.4160   -8.0830 O         1 <0>         0.0000
   8408 WAT       -37.4320  -77.4160   -7.8330 O         1 <0>         0.0000
   8409 WAT       -37.4320  -77.4160   -7.5830 O         1 <0>         0.0000
   8410 WAT       -37.4320  -77.4160   -7.3330 O         1 <0>         0.0000
   8411 WAT       -37.4320  -77.4160   -7.0830 O         1 <0>         0.0000
   8412 WAT       -37.4320  -77.4160   -6.8330 O         1 <0>         0.0000
   8413 WAT       -37.4320  -77.4160   -6.5830 O         1 <0>         0.0000
   8414 WAT       -37.4320  -77.4160   -6.3330 O         1 <0>         0.0000
   8415 WAT       -37.4320  -77.4160   -6.0830 O         1 <0>         0.0000
   8416 WAT       -37.4320  -77.4160   -5.8330 O         1 <0>         0.0000
   8417 WAT       -37.4320  -77.4160   -5.5830 O         1 <0>         0.0000
   8418 WAT       -37.4320  -77.4160   -5.3330 O         1 <0>         0.0000
   8419 WAT       -37.4320  -77.4160   -5.0830 O         1 <0>         0.0000
   8420 WAT       -37.4320  -77.4160   -4.8330 O         1 <0>         0.0000
   8421 WAT       -37.4320  -77.4160   -4.5830 O         1 <0>         0.0000
   8422 WAT       -37.4320  -77.4160   -4.3330 O         1 <0>         0.0000
   8423 WAT       -37.4320  -77.4160   -4.0830 O         1 <0>         0.0000
   8424 WAT       -37.4320  -77.4160   -3.8330 O         1 <0>         0.0000
   8425 WAT       -37.4320  -77.4160   -3.5830 O         1 <0>         0.0000
   8426 WAT       -37.4320  -77.4160   -3.3330 O         1 <0>         0.0000
   8427 WAT       -37.4320  -77.4160   -3.0830 O         1 <0>         0.0000
   8428 WAT       -37.4320  -77.4160   -2.8330 O         1 <0>         0.0000
   8429 WAT       -37.4320  -77.4160   -2.5830 O         1 <0>         0.0000
   8430 WAT       -37.4320  -77.4160   -2.3330 O         1 <0>         0.0000
   8431 WAT       -37.4320  -77.4160   -2.0830 O         1 <0>         0.0000
   8432 WAT       -37.4320  -77.4160   -1.8330 O         1 <0>         0.0000
   8433 WAT       -37.4320  -77.4160   -1.5830 O         1 <0>         0.0000
   8434 WAT       -37.4320  -77.4160   -1.3330 O         1 <0>         0.0000
   8435 WAT       -37.4320  -77.4160   -1.0830 O         1 <0>         0.0000
   8436 WAT       -37.4320  -77.4160   -0.8330 O         1 <0>         0.0000
   8437 WAT       -37.4320  -77.4160   -0.5830 O         1 <0>         0.0000
   8438 WAT       -37.4320  -77.4160   -0.3330 O         1 <0>         0.0000
   8439 WAT       -37.4320  -77.4160   -0.0830 O         1 <0>         0.0000
   8440 WAT       -37.4320  -77.1660   -9.8330 O         1 <0>         0.0000
   8441 WAT       -37.4320  -77.1660   -9.5830 O         1 <0>         0.0000
   8442 WAT       -37.4320  -77.1660   -9.3330 O         1 <0>         0.0000
   8443 WAT       -37.4320  -77.1660   -9.0830 O         1 <0>         0.0000
   8444 WAT       -37.4320  -77.1660   -8.8330 O         1 <0>         0.0000
   8445 WAT       -37.4320  -77.1660   -8.5830 O         1 <0>         0.0000
   8446 WAT       -37.4320  -77.1660   -8.3330 O         1 <0>         0.0000
   8447 WAT       -37.4320  -77.1660   -8.0830 O         1 <0>         0.0000
   8448 WAT       -37.4320  -77.1660   -7.8330 O         1 <0>         0.0000
   8449 WAT       -37.4320  -77.1660   -7.5830 O         1 <0>         0.0000
   8450 WAT       -37.4320  -77.1660   -7.3330 O         1 <0>         0.0000
   8451 WAT       -37.4320  -77.1660   -7.0830 O         1 <0>         0.0000
   8452 WAT       -37.4320  -77.1660   -6.8330 O         1 <0>         0.0000
   8453 WAT       -37.4320  -77.1660   -6.5830 O         1 <0>         0.0000
   8454 WAT       -37.4320  -77.1660   -6.3330 O         1 <0>         0.0000
   8455 WAT       -37.4320  -77.1660   -6.0830 O         1 <0>         0.0000
   8456 WAT       -37.4320  -77.1660   -5.8330 O         1 <0>         0.0000
   8457 WAT       -37.4320  -77.1660   -5.5830 O         1 <0>         0.0000
   8458 WAT       -37.4320  -77.1660   -5.3330 O         1 <0>         0.0000
   8459 WAT       -37.4320  -77.1660   -5.0830 O         1 <0>         0.0000
   8460 WAT       -37.4320  -77.1660   -4.8330 O         1 <0>         0.0000
   8461 WAT       -37.4320  -77.1660   -4.5830 O         1 <0>         0.0000
   8462 WAT       -37.4320  -77.1660   -4.3330 O         1 <0>         0.0000
   8463 WAT       -37.4320  -77.1660   -4.0830 O         1 <0>         0.0000
   8464 WAT       -37.4320  -77.1660   -3.8330 O         1 <0>         0.0000
   8465 WAT       -37.4320  -77.1660   -3.5830 O         1 <0>         0.0000
   8466 WAT       -37.4320  -77.1660   -3.3330 O         1 <0>         0.0000
   8467 WAT       -37.4320  -77.1660   -3.0830 O         1 <0>         0.0000
   8468 WAT       -37.4320  -77.1660   -2.8330 O         1 <0>         0.0000
   8469 WAT       -37.4320  -77.1660   -2.5830 O         1 <0>         0.0000
   8470 WAT       -37.4320  -77.1660   -2.3330 O         1 <0>         0.0000
   8471 WAT       -37.4320  -77.1660   -2.0830 O         1 <0>         0.0000
   8472 WAT       -37.4320  -77.1660   -1.8330 O         1 <0>         0.0000
   8473 WAT       -37.4320  -77.1660   -1.5830 O         1 <0>         0.0000
   8474 WAT       -37.4320  -77.1660   -1.3330 O         1 <0>         0.0000
   8475 WAT       -37.4320  -77.1660   -1.0830 O         1 <0>         0.0000
   8476 WAT       -37.4320  -77.1660   -0.8330 O         1 <0>         0.0000
   8477 WAT       -37.4320  -77.1660   -0.5830 O         1 <0>         0.0000
   8478 WAT       -37.4320  -77.1660   -0.3330 O         1 <0>         0.0000
   8479 WAT       -37.4320  -77.1660   -0.0830 O         1 <0>         0.0000
   8480 WAT       -37.4320  -76.9160   -9.8330 O         1 <0>         0.0000
   8481 WAT       -37.4320  -76.9160   -9.5830 O         1 <0>         0.0000
   8482 WAT       -37.4320  -76.9160   -9.3330 O         1 <0>         0.0000
   8483 WAT       -37.4320  -76.9160   -9.0830 O         1 <0>         0.0000
   8484 WAT       -37.4320  -76.9160   -8.8330 O         1 <0>         0.0000
   8485 WAT       -37.4320  -76.9160   -8.5830 O         1 <0>         0.0000
   8486 WAT       -37.4320  -76.9160   -8.3330 O         1 <0>         0.0000
   8487 WAT       -37.4320  -76.9160   -8.0830 O         1 <0>         0.0000
   8488 WAT       -37.4320  -76.9160   -7.8330 O         1 <0>         0.0000
   8489 WAT       -37.4320  -76.9160   -7.5830 O         1 <0>         0.0000
   8490 WAT       -37.4320  -76.9160   -7.3330 O         1 <0>         0.0000
   8491 WAT       -37.4320  -76.9160   -7.0830 O         1 <0>         0.0000
   8492 WAT       -37.4320  -76.9160   -6.8330 O         1 <0>         0.0000
   8493 WAT       -37.4320  -76.9160   -6.5830 O         1 <0>         0.0000
   8494 WAT       -37.4320  -76.9160   -6.3330 O         1 <0>         0.0000
   8495 WAT       -37.4320  -76.9160   -6.0830 O         1 <0>         0.0000
   8496 WAT       -37.4320  -76.9160   -5.8330 O         1 <0>         0.0000
   8497 WAT       -37.4320  -76.9160   -5.5830 O         1 <0>         0.0000
   8498 WAT       -37.4320  -76.9160   -5.3330 O         1 <0>         0.0000
   8499 WAT       -37.4320  -76.9160   -5.0830 O         1 <0>         0.0000
   8500 WAT       -37.4320  -76.9160   -4.8330 O         1 <0>         0.0000
   8501 WAT       -37.4320  -76.9160   -4.5830 O         1 <0>         0.0000
   8502 WAT       -37.4320  -76.9160   -4.3330 O         1 <0>         0.0000
   8503 WAT       -37.4320  -76.9160   -4.0830 O         1 <0>         0.0000
   8504 WAT       -37.4320  -76.9160   -3.8330 O         1 <0>         0.0000
   8505 WAT       -37.4320  -76.9160   -3.5830 O         1 <0>         0.0000
   8506 WAT       -37.4320  -76.9160   -3.3330 O         1 <0>         0.0000
   8507 WAT       -37.4320  -76.9160   -3.0830 O         1 <0>         0.0000
   8508 WAT       -37.4320  -76.9160   -2.8330 O         1 <0>         0.0000
   8509 WAT       -37.4320  -76.9160   -2.5830 O         1 <0>         0.0000
   8510 WAT       -37.4320  -76.9160   -2.3330 O         1 <0>         0.0000
   8511 WAT       -37.4320  -76.9160   -2.0830 O         1 <0>         0.0000
   8512 WAT       -37.4320  -76.9160   -1.8330 O         1 <0>         0.0000
   8513 WAT       -37.4320  -76.9160   -1.5830 O         1 <0>         0.0000
   8514 WAT       -37.4320  -76.9160   -1.3330 O         1 <0>         0.0000
   8515 WAT       -37.4320  -76.9160   -1.0830 O         1 <0>         0.0000
   8516 WAT       -37.4320  -76.9160   -0.8330 O         1 <0>         0.0000
   8517 WAT       -37.4320  -76.9160   -0.5830 O         1 <0>         0.0000
   8518 WAT       -37.4320  -76.9160   -0.3330 O         1 <0>         0.0000
   8519 WAT       -37.4320  -76.9160   -0.0830 O         1 <0>         0.0000
   8520 WAT       -37.4320  -76.6660   -9.8330 O         1 <0>         0.0000
   8521 WAT       -37.4320  -76.6660   -9.5830 O         1 <0>         0.0000
   8522 WAT       -37.4320  -76.6660   -9.3330 O         1 <0>         0.0000
   8523 WAT       -37.4320  -76.6660   -9.0830 O         1 <0>         0.0000
   8524 WAT       -37.4320  -76.6660   -8.8330 O         1 <0>         0.0000
   8525 WAT       -37.4320  -76.6660   -8.5830 O         1 <0>         0.0000
   8526 WAT       -37.4320  -76.6660   -8.3330 O         1 <0>         0.0000
   8527 WAT       -37.4320  -76.6660   -8.0830 O         1 <0>         0.0000
   8528 WAT       -37.4320  -76.6660   -7.8330 O         1 <0>         0.0000
   8529 WAT       -37.4320  -76.6660   -7.5830 O         1 <0>         0.0000
   8530 WAT       -37.4320  -76.6660   -7.3330 O         1 <0>         0.0000
   8531 WAT       -37.4320  -76.6660   -7.0830 O         1 <0>         0.0000
   8532 WAT       -37.4320  -76.6660   -6.8330 O         1 <0>         0.0000
   8533 WAT       -37.4320  -76.6660   -6.5830 O         1 <0>         0.0000
   8534 WAT       -37.4320  -76.6660   -6.3330 O         1 <0>         0.0000
   8535 WAT       -37.4320  -76.6660   -6.0830 O         1 <0>         0.0000
   8536 WAT       -37.4320  -76.6660   -5.8330 O         1 <0>         0.0000
   8537 WAT       -37.4320  -76.6660   -5.5830 O         1 <0>         0.0000
   8538 WAT       -37.4320  -76.6660   -5.3330 O         1 <0>         0.0000
   8539 WAT       -37.4320  -76.6660   -5.0830 O         1 <0>         0.0000
   8540 WAT       -37.4320  -76.6660   -4.8330 O         1 <0>         0.0000
   8541 WAT       -37.4320  -76.6660   -4.5830 O         1 <0>         0.0000
   8542 WAT       -37.4320  -76.6660   -4.3330 O         1 <0>         0.0000
   8543 WAT       -37.4320  -76.6660   -4.0830 O         1 <0>         0.0000
   8544 WAT       -37.4320  -76.6660   -3.8330 O         1 <0>         0.0000
   8545 WAT       -37.4320  -76.6660   -3.5830 O         1 <0>         0.0000
   8546 WAT       -37.4320  -76.6660   -3.3330 O         1 <0>         0.0000
   8547 WAT       -37.4320  -76.6660   -3.0830 O         1 <0>         0.0000
   8548 WAT       -37.4320  -76.6660   -2.8330 O         1 <0>         0.0000
   8549 WAT       -37.4320  -76.6660   -2.5830 O         1 <0>         0.0000
   8550 WAT       -37.4320  -76.6660   -2.3330 O         1 <0>         0.0000
   8551 WAT       -37.4320  -76.6660   -2.0830 O         1 <0>         0.0000
   8552 WAT       -37.4320  -76.6660   -1.8330 O         1 <0>         0.0000
   8553 WAT       -37.4320  -76.6660   -1.5830 O         1 <0>         0.0000
   8554 WAT       -37.4320  -76.6660   -1.3330 O         1 <0>         0.0000
   8555 WAT       -37.4320  -76.6660   -1.0830 O         1 <0>         0.0000
   8556 WAT       -37.4320  -76.6660   -0.8330 O         1 <0>         0.0000
   8557 WAT       -37.4320  -76.6660   -0.5830 O         1 <0>         0.0000
   8558 WAT       -37.4320  -76.6660   -0.3330 O         1 <0>         0.0000
   8559 WAT       -37.4320  -76.6660   -0.0830 O         1 <0>         0.0000
   8560 WAT       -37.4320  -76.4160   -9.8330 O         1 <0>         0.0000
   8561 WAT       -37.4320  -76.4160   -9.5830 O         1 <0>         0.0000
   8562 WAT       -37.4320  -76.4160   -9.3330 O         1 <0>         0.0000
   8563 WAT       -37.4320  -76.4160   -9.0830 O         1 <0>         0.0000
   8564 WAT       -37.4320  -76.4160   -8.8330 O         1 <0>         0.0000
   8565 WAT       -37.4320  -76.4160   -8.5830 O         1 <0>         0.0000
   8566 WAT       -37.4320  -76.4160   -8.3330 O         1 <0>         0.0000
   8567 WAT       -37.4320  -76.4160   -8.0830 O         1 <0>         0.0000
   8568 WAT       -37.4320  -76.4160   -7.8330 O         1 <0>         0.0000
   8569 WAT       -37.4320  -76.4160   -7.5830 O         1 <0>         0.0000
   8570 WAT       -37.4320  -76.4160   -7.3330 O         1 <0>         0.0000
   8571 WAT       -37.4320  -76.4160   -7.0830 O         1 <0>         0.0000
   8572 WAT       -37.4320  -76.4160   -6.8330 O         1 <0>         0.0000
   8573 WAT       -37.4320  -76.4160   -6.5830 O         1 <0>         0.0000
   8574 WAT       -37.4320  -76.4160   -6.3330 O         1 <0>         0.0000
   8575 WAT       -37.4320  -76.4160   -6.0830 O         1 <0>         0.0000
   8576 WAT       -37.4320  -76.4160   -5.8330 O         1 <0>         0.0000
   8577 WAT       -37.4320  -76.4160   -5.5830 O         1 <0>         0.0000
   8578 WAT       -37.4320  -76.4160   -5.3330 O         1 <0>         0.0000
   8579 WAT       -37.4320  -76.4160   -5.0830 O         1 <0>         0.0000
   8580 WAT       -37.4320  -76.4160   -4.8330 O         1 <0>         0.0000
   8581 WAT       -37.4320  -76.4160   -4.5830 O         1 <0>         0.0000
   8582 WAT       -37.4320  -76.4160   -4.3330 O         1 <0>         0.0000
   8583 WAT       -37.4320  -76.4160   -4.0830 O         1 <0>         0.0000
   8584 WAT       -37.4320  -76.4160   -3.8330 O         1 <0>         0.0000
   8585 WAT       -37.4320  -76.4160   -3.5830 O         1 <0>         0.0000
   8586 WAT       -37.4320  -76.4160   -3.3330 O         1 <0>         0.0000
   8587 WAT       -37.4320  -76.4160   -3.0830 O         1 <0>         0.0000
   8588 WAT       -37.4320  -76.4160   -2.8330 O         1 <0>         0.0000
   8589 WAT       -37.4320  -76.4160   -2.5830 O         1 <0>         0.0000
   8590 WAT       -37.4320  -76.4160   -2.3330 O         1 <0>         0.0000
   8591 WAT       -37.4320  -76.4160   -2.0830 O         1 <0>         0.0000
   8592 WAT       -37.4320  -76.4160   -1.8330 O         1 <0>         0.0000
   8593 WAT       -37.4320  -76.4160   -1.5830 O         1 <0>         0.0000
   8594 WAT       -37.4320  -76.4160   -1.3330 O         1 <0>         0.0000
   8595 WAT       -37.4320  -76.4160   -1.0830 O         1 <0>         0.0000
   8596 WAT       -37.4320  -76.4160   -0.8330 O         1 <0>         0.0000
   8597 WAT       -37.4320  -76.4160   -0.5830 O         1 <0>         0.0000
   8598 WAT       -37.4320  -76.4160   -0.3330 O         1 <0>         0.0000
   8599 WAT       -37.4320  -76.4160   -0.0830 O         1 <0>         0.0000
   8600 WAT       -37.4320  -76.1660   -9.8330 O         1 <0>         0.0000
   8601 WAT       -37.4320  -76.1660   -9.5830 O         1 <0>         0.0000
   8602 WAT       -37.4320  -76.1660   -9.3330 O         1 <0>         0.0000
   8603 WAT       -37.4320  -76.1660   -9.0830 O         1 <0>         0.0000
   8604 WAT       -37.4320  -76.1660   -8.8330 O         1 <0>         0.0000
   8605 WAT       -37.4320  -76.1660   -8.5830 O         1 <0>         0.0000
   8606 WAT       -37.4320  -76.1660   -8.3330 O         1 <0>         0.0000
   8607 WAT       -37.4320  -76.1660   -8.0830 O         1 <0>         0.0000
   8608 WAT       -37.4320  -76.1660   -7.8330 O         1 <0>         0.0000
   8609 WAT       -37.4320  -76.1660   -7.5830 O         1 <0>         0.0000
   8610 WAT       -37.4320  -76.1660   -7.3330 O         1 <0>         0.0000
   8611 WAT       -37.4320  -76.1660   -7.0830 O         1 <0>         0.0000
   8612 WAT       -37.4320  -76.1660   -6.8330 O         1 <0>         0.0000
   8613 WAT       -37.4320  -76.1660   -6.5830 O         1 <0>         0.0000
   8614 WAT       -37.4320  -76.1660   -6.3330 O         1 <0>         0.0000
   8615 WAT       -37.4320  -76.1660   -6.0830 O         1 <0>         0.0000
   8616 WAT       -37.4320  -76.1660   -5.8330 O         1 <0>         0.0000
   8617 WAT       -37.4320  -76.1660   -5.5830 O         1 <0>         0.0000
   8618 WAT       -37.4320  -76.1660   -5.3330 O         1 <0>         0.0000
   8619 WAT       -37.4320  -76.1660   -5.0830 O         1 <0>         0.0000
   8620 WAT       -37.4320  -76.1660   -4.8330 O         1 <0>         0.0000
   8621 WAT       -37.4320  -76.1660   -4.5830 O         1 <0>         0.0000
   8622 WAT       -37.4320  -76.1660   -4.3330 O         1 <0>         0.0000
   8623 WAT       -37.4320  -76.1660   -4.0830 O         1 <0>         0.0000
   8624 WAT       -37.4320  -76.1660   -3.8330 O         1 <0>         0.0000
   8625 WAT       -37.4320  -76.1660   -3.5830 O         1 <0>         0.0000
   8626 WAT       -37.4320  -76.1660   -3.3330 O         1 <0>         0.0000
   8627 WAT       -37.4320  -76.1660   -3.0830 O         1 <0>         0.0000
   8628 WAT       -37.4320  -76.1660   -2.8330 O         1 <0>         0.0000
   8629 WAT       -37.4320  -76.1660   -2.5830 O         1 <0>         0.0000
   8630 WAT       -37.4320  -76.1660   -2.3330 O         1 <0>         0.0000
   8631 WAT       -37.4320  -76.1660   -2.0830 O         1 <0>         0.0000
   8632 WAT       -37.4320  -76.1660   -1.8330 O         1 <0>         0.0000
   8633 WAT       -37.4320  -76.1660   -1.5830 O         1 <0>         0.0000
   8634 WAT       -37.4320  -76.1660   -1.3330 O         1 <0>         0.0000
   8635 WAT       -37.4320  -76.1660   -1.0830 O         1 <0>         0.0000
   8636 WAT       -37.4320  -76.1660   -0.8330 O         1 <0>         0.0000
   8637 WAT       -37.4320  -76.1660   -0.5830 O         1 <0>         0.0000
   8638 WAT       -37.4320  -76.1660   -0.3330 O         1 <0>         0.0000
   8639 WAT       -37.4320  -76.1660   -0.0830 O         1 <0>         0.0000
   8640 WAT       -37.4320  -75.9160   -9.8330 O         1 <0>         0.0000
   8641 WAT       -37.4320  -75.9160   -9.5830 O         1 <0>         0.0000
   8642 WAT       -37.4320  -75.9160   -9.3330 O         1 <0>         0.0000
   8643 WAT       -37.4320  -75.9160   -9.0830 O         1 <0>         0.0000
   8644 WAT       -37.4320  -75.9160   -8.8330 O         1 <0>         0.0000
   8645 WAT       -37.4320  -75.9160   -8.5830 O         1 <0>         0.0000
   8646 WAT       -37.4320  -75.9160   -8.3330 O         1 <0>         0.0000
   8647 WAT       -37.4320  -75.9160   -8.0830 O         1 <0>         0.0000
   8648 WAT       -37.4320  -75.9160   -7.8330 O         1 <0>         0.0000
   8649 WAT       -37.4320  -75.9160   -7.5830 O         1 <0>         0.0000
   8650 WAT       -37.4320  -75.9160   -7.3330 O         1 <0>         0.0000
   8651 WAT       -37.4320  -75.9160   -7.0830 O         1 <0>         0.0000
   8652 WAT       -37.4320  -75.9160   -6.8330 O         1 <0>         0.0000
   8653 WAT       -37.4320  -75.9160   -6.5830 O         1 <0>         0.0000
   8654 WAT       -37.4320  -75.9160   -6.3330 O         1 <0>         0.0000
   8655 WAT       -37.4320  -75.9160   -6.0830 O         1 <0>         0.0000
   8656 WAT       -37.4320  -75.9160   -5.8330 O         1 <0>         0.0000
   8657 WAT       -37.4320  -75.9160   -5.5830 O         1 <0>         0.0000
   8658 WAT       -37.4320  -75.9160   -5.3330 O         1 <0>         0.0000
   8659 WAT       -37.4320  -75.9160   -5.0830 O         1 <0>         0.0000
   8660 WAT       -37.4320  -75.9160   -4.8330 O         1 <0>         0.0000
   8661 WAT       -37.4320  -75.9160   -4.5830 O         1 <0>         0.0000
   8662 WAT       -37.4320  -75.9160   -4.3330 O         1 <0>         0.0000
   8663 WAT       -37.4320  -75.9160   -4.0830 O         1 <0>         0.0000
   8664 WAT       -37.4320  -75.9160   -3.8330 O         1 <0>         0.0000
   8665 WAT       -37.4320  -75.9160   -3.5830 O         1 <0>         0.0000
   8666 WAT       -37.4320  -75.9160   -3.3330 O         1 <0>         0.0000
   8667 WAT       -37.4320  -75.9160   -3.0830 O         1 <0>         0.0000
   8668 WAT       -37.4320  -75.9160   -2.8330 O         1 <0>         0.0000
   8669 WAT       -37.4320  -75.9160   -2.5830 O         1 <0>         0.0000
   8670 WAT       -37.4320  -75.9160   -2.3330 O         1 <0>         0.0000
   8671 WAT       -37.4320  -75.9160   -2.0830 O         1 <0>         0.0000
   8672 WAT       -37.4320  -75.9160   -1.8330 O         1 <0>         0.0000
   8673 WAT       -37.4320  -75.9160   -1.5830 O         1 <0>         0.0000
   8674 WAT       -37.4320  -75.9160   -1.3330 O         1 <0>         0.0000
   8675 WAT       -37.4320  -75.9160   -1.0830 O         1 <0>         0.0000
   8676 WAT       -37.4320  -75.9160   -0.8330 O         1 <0>         0.0000
   8677 WAT       -37.4320  -75.9160   -0.5830 O         1 <0>         0.0000
   8678 WAT       -37.4320  -75.9160   -0.3330 O         1 <0>         0.0000
   8679 WAT       -37.4320  -75.9160   -0.0830 O         1 <0>         0.0000
   8680 WAT       -37.4320  -75.6660   -9.8330 O         1 <0>         0.0000
   8681 WAT       -37.4320  -75.6660   -9.5830 O         1 <0>         0.0000
   8682 WAT       -37.4320  -75.6660   -9.3330 O         1 <0>         0.0000
   8683 WAT       -37.4320  -75.6660   -9.0830 O         1 <0>         0.0000
   8684 WAT       -37.4320  -75.6660   -8.8330 O         1 <0>         0.0000
   8685 WAT       -37.4320  -75.6660   -8.5830 O         1 <0>         0.0000
   8686 WAT       -37.4320  -75.6660   -8.3330 O         1 <0>         0.0000
   8687 WAT       -37.4320  -75.6660   -8.0830 O         1 <0>         0.0000
   8688 WAT       -37.4320  -75.6660   -7.8330 O         1 <0>         0.0000
   8689 WAT       -37.4320  -75.6660   -7.5830 O         1 <0>         0.0000
   8690 WAT       -37.4320  -75.6660   -7.3330 O         1 <0>         0.0000
   8691 WAT       -37.4320  -75.6660   -7.0830 O         1 <0>         0.0000
   8692 WAT       -37.4320  -75.6660   -6.8330 O         1 <0>         0.0000
   8693 WAT       -37.4320  -75.6660   -6.5830 O         1 <0>         0.0000
   8694 WAT       -37.4320  -75.6660   -6.3330 O         1 <0>         0.0000
   8695 WAT       -37.4320  -75.6660   -6.0830 O         1 <0>         0.0000
   8696 WAT       -37.4320  -75.6660   -5.8330 O         1 <0>         0.0000
   8697 WAT       -37.4320  -75.6660   -5.5830 O         1 <0>         0.0000
   8698 WAT       -37.4320  -75.6660   -5.3330 O         1 <0>         0.0000
   8699 WAT       -37.4320  -75.6660   -5.0830 O         1 <0>         0.0000
   8700 WAT       -37.4320  -75.6660   -4.8330 O         1 <0>         0.0000
   8701 WAT       -37.4320  -75.6660   -4.5830 O         1 <0>         0.0000
   8702 WAT       -37.4320  -75.6660   -4.3330 O         1 <0>         0.0000
   8703 WAT       -37.4320  -75.6660   -4.0830 O         1 <0>         0.0000
   8704 WAT       -37.4320  -75.6660   -3.8330 O         1 <0>         0.0000
   8705 WAT       -37.4320  -75.6660   -3.5830 O         1 <0>         0.0000
   8706 WAT       -37.4320  -75.6660   -3.3330 O         1 <0>         0.0000
   8707 WAT       -37.4320  -75.6660   -3.0830 O         1 <0>         0.0000
   8708 WAT       -37.4320  -75.6660   -2.8330 O         1 <0>         0.0000
   8709 WAT       -37.4320  -75.6660   -2.5830 O         1 <0>         0.0000
   8710 WAT       -37.4320  -75.6660   -2.3330 O         1 <0>         0.0000
   8711 WAT       -37.4320  -75.6660   -2.0830 O         1 <0>         0.0000
   8712 WAT       -37.4320  -75.6660   -1.8330 O         1 <0>         0.0000
   8713 WAT       -37.4320  -75.6660   -1.5830 O         1 <0>         0.0000
   8714 WAT       -37.4320  -75.6660   -1.3330 O         1 <0>         0.0000
   8715 WAT       -37.4320  -75.6660   -1.0830 O         1 <0>         0.0000
   8716 WAT       -37.4320  -75.6660   -0.8330 O         1 <0>         0.0000
   8717 WAT       -37.4320  -75.6660   -0.5830 O         1 <0>         0.0000
   8718 WAT       -37.4320  -75.6660   -0.3330 O         1 <0>         0.0000
   8719 WAT       -37.4320  -75.6660   -0.0830 O         1 <0>         0.0000
   8720 WAT       -37.4320  -75.4160   -9.8330 O         1 <0>         0.0000
   8721 WAT       -37.4320  -75.4160   -9.5830 O         1 <0>         0.0000
   8722 WAT       -37.4320  -75.4160   -9.3330 O         1 <0>         0.0000
   8723 WAT       -37.4320  -75.4160   -9.0830 O         1 <0>         0.0000
   8724 WAT       -37.4320  -75.4160   -8.8330 O         1 <0>         0.0000
   8725 WAT       -37.4320  -75.4160   -8.5830 O         1 <0>         0.0000
   8726 WAT       -37.4320  -75.4160   -8.3330 O         1 <0>         0.0000
   8727 WAT       -37.4320  -75.4160   -8.0830 O         1 <0>         0.0000
   8728 WAT       -37.4320  -75.4160   -7.8330 O         1 <0>         0.0000
   8729 WAT       -37.4320  -75.4160   -7.5830 O         1 <0>         0.0000
   8730 WAT       -37.4320  -75.4160   -7.3330 O         1 <0>         0.0000
   8731 WAT       -37.4320  -75.4160   -7.0830 O         1 <0>         0.0000
   8732 WAT       -37.4320  -75.4160   -6.8330 O         1 <0>         0.0000
   8733 WAT       -37.4320  -75.4160   -6.5830 O         1 <0>         0.0000
   8734 WAT       -37.4320  -75.4160   -6.3330 O         1 <0>         0.0000
   8735 WAT       -37.4320  -75.4160   -6.0830 O         1 <0>         0.0000
   8736 WAT       -37.4320  -75.4160   -5.8330 O         1 <0>         0.0000
   8737 WAT       -37.4320  -75.4160   -5.5830 O         1 <0>         0.0000
   8738 WAT       -37.4320  -75.4160   -5.3330 O         1 <0>         0.0000
   8739 WAT       -37.4320  -75.4160   -5.0830 O         1 <0>         0.0000
   8740 WAT       -37.4320  -75.4160   -4.8330 O         1 <0>         0.0001
   8741 WAT       -37.4320  -75.4160   -4.5830 O         1 <0>         0.0001
   8742 WAT       -37.4320  -75.4160   -4.3330 O         1 <0>         0.0000
   8743 WAT       -37.4320  -75.4160   -4.0830 O         1 <0>         0.0000
   8744 WAT       -37.4320  -75.4160   -3.8330 O         1 <0>         0.0000
   8745 WAT       -37.4320  -75.4160   -3.5830 O         1 <0>         0.0000
   8746 WAT       -37.4320  -75.4160   -3.3330 O         1 <0>         0.0000
   8747 WAT       -37.4320  -75.4160   -3.0830 O         1 <0>         0.0000
   8748 WAT       -37.4320  -75.4160   -2.8330 O         1 <0>         0.0000
   8749 WAT       -37.4320  -75.4160   -2.5830 O         1 <0>         0.0000
   8750 WAT       -37.4320  -75.4160   -2.3330 O         1 <0>         0.0000
   8751 WAT       -37.4320  -75.4160   -2.0830 O         1 <0>         0.0000
   8752 WAT       -37.4320  -75.4160   -1.8330 O         1 <0>         0.0000
   8753 WAT       -37.4320  -75.4160   -1.5830 O         1 <0>         0.0000
   8754 WAT       -37.4320  -75.4160   -1.3330 O         1 <0>         0.0000
   8755 WAT       -37.4320  -75.4160   -1.0830 O         1 <0>         0.0000
   8756 WAT       -37.4320  -75.4160   -0.8330 O         1 <0>         0.0000
   8757 WAT       -37.4320  -75.4160   -0.5830 O         1 <0>         0.0000
   8758 WAT       -37.4320  -75.4160   -0.3330 O         1 <0>         0.0000
   8759 WAT       -37.4320  -75.4160   -0.0830 O         1 <0>         0.0000
   8760 WAT       -37.4320  -75.1660   -9.8330 O         1 <0>         0.0000
   8761 WAT       -37.4320  -75.1660   -9.5830 O         1 <0>         0.0000
   8762 WAT       -37.4320  -75.1660   -9.3330 O         1 <0>         0.0000
   8763 WAT       -37.4320  -75.1660   -9.0830 O         1 <0>         0.0000
   8764 WAT       -37.4320  -75.1660   -8.8330 O         1 <0>         0.0000
   8765 WAT       -37.4320  -75.1660   -8.5830 O         1 <0>         0.0000
   8766 WAT       -37.4320  -75.1660   -8.3330 O         1 <0>         0.0000
   8767 WAT       -37.4320  -75.1660   -8.0830 O         1 <0>         0.0000
   8768 WAT       -37.4320  -75.1660   -7.8330 O         1 <0>         0.0000
   8769 WAT       -37.4320  -75.1660   -7.5830 O         1 <0>         0.0000
   8770 WAT       -37.4320  -75.1660   -7.3330 O         1 <0>         0.0000
   8771 WAT       -37.4320  -75.1660   -7.0830 O         1 <0>         0.0000
   8772 WAT       -37.4320  -75.1660   -6.8330 O         1 <0>         0.0000
   8773 WAT       -37.4320  -75.1660   -6.5830 O         1 <0>         0.0000
   8774 WAT       -37.4320  -75.1660   -6.3330 O         1 <0>         0.0000
   8775 WAT       -37.4320  -75.1660   -6.0830 O         1 <0>         0.0000
   8776 WAT       -37.4320  -75.1660   -5.8330 O         1 <0>         0.0000
   8777 WAT       -37.4320  -75.1660   -5.5830 O         1 <0>         0.0000
   8778 WAT       -37.4320  -75.1660   -5.3330 O         1 <0>         0.0000
   8779 WAT       -37.4320  -75.1660   -5.0830 O         1 <0>         0.0001
   8780 WAT       -37.4320  -75.1660   -4.8330 O         1 <0>         0.0002
   8781 WAT       -37.4320  -75.1660   -4.5830 O         1 <0>         0.0002
   8782 WAT       -37.4320  -75.1660   -4.3330 O         1 <0>         0.0001
   8783 WAT       -37.4320  -75.1660   -4.0830 O         1 <0>         0.0001
   8784 WAT       -37.4320  -75.1660   -3.8330 O         1 <0>         0.0000
   8785 WAT       -37.4320  -75.1660   -3.5830 O         1 <0>         0.0000
   8786 WAT       -37.4320  -75.1660   -3.3330 O         1 <0>         0.0000
   8787 WAT       -37.4320  -75.1660   -3.0830 O         1 <0>         0.0000
   8788 WAT       -37.4320  -75.1660   -2.8330 O         1 <0>         0.0000
   8789 WAT       -37.4320  -75.1660   -2.5830 O         1 <0>         0.0000
   8790 WAT       -37.4320  -75.1660   -2.3330 O         1 <0>         0.0000
   8791 WAT       -37.4320  -75.1660   -2.0830 O         1 <0>         0.0000
   8792 WAT       -37.4320  -75.1660   -1.8330 O         1 <0>         0.0000
   8793 WAT       -37.4320  -75.1660   -1.5830 O         1 <0>         0.0000
   8794 WAT       -37.4320  -75.1660   -1.3330 O         1 <0>         0.0000
   8795 WAT       -37.4320  -75.1660   -1.0830 O         1 <0>         0.0000
   8796 WAT       -37.4320  -75.1660   -0.8330 O         1 <0>         0.0000
   8797 WAT       -37.4320  -75.1660   -0.5830 O         1 <0>         0.0000
   8798 WAT       -37.4320  -75.1660   -0.3330 O         1 <0>         0.0000
   8799 WAT       -37.4320  -75.1660   -0.0830 O         1 <0>         0.0000
   8800 WAT       -37.4320  -74.9160   -9.8330 O         1 <0>         0.0000
   8801 WAT       -37.4320  -74.9160   -9.5830 O         1 <0>         0.0000
   8802 WAT       -37.4320  -74.9160   -9.3330 O         1 <0>         0.0000
   8803 WAT       -37.4320  -74.9160   -9.0830 O         1 <0>         0.0000
   8804 WAT       -37.4320  -74.9160   -8.8330 O         1 <0>         0.0000
   8805 WAT       -37.4320  -74.9160   -8.5830 O         1 <0>         0.0000
   8806 WAT       -37.4320  -74.9160   -8.3330 O         1 <0>         0.0000
   8807 WAT       -37.4320  -74.9160   -8.0830 O         1 <0>         0.0000
   8808 WAT       -37.4320  -74.9160   -7.8330 O         1 <0>         0.0000
   8809 WAT       -37.4320  -74.9160   -7.5830 O         1 <0>         0.0000
   8810 WAT       -37.4320  -74.9160   -7.3330 O         1 <0>         0.0000
   8811 WAT       -37.4320  -74.9160   -7.0830 O         1 <0>         0.0000
   8812 WAT       -37.4320  -74.9160   -6.8330 O         1 <0>         0.0000
   8813 WAT       -37.4320  -74.9160   -6.5830 O         1 <0>         0.0000
   8814 WAT       -37.4320  -74.9160   -6.3330 O         1 <0>         0.0000
   8815 WAT       -37.4320  -74.9160   -6.0830 O         1 <0>         0.0000
   8816 WAT       -37.4320  -74.9160   -5.8330 O         1 <0>         0.0000
   8817 WAT       -37.4320  -74.9160   -5.5830 O         1 <0>         0.0000
   8818 WAT       -37.4320  -74.9160   -5.3330 O         1 <0>         0.0001
   8819 WAT       -37.4320  -74.9160   -5.0830 O         1 <0>         0.0003
   8820 WAT       -37.4320  -74.9160   -4.8330 O         1 <0>         0.0004
   8821 WAT       -37.4320  -74.9160   -4.5830 O         1 <0>         0.0004
   8822 WAT       -37.4320  -74.9160   -4.3330 O         1 <0>         0.0003
   8823 WAT       -37.4320  -74.9160   -4.0830 O         1 <0>         0.0001
   8824 WAT       -37.4320  -74.9160   -3.8330 O         1 <0>         0.0000
   8825 WAT       -37.4320  -74.9160   -3.5830 O         1 <0>         0.0000
   8826 WAT       -37.4320  -74.9160   -3.3330 O         1 <0>         0.0000
   8827 WAT       -37.4320  -74.9160   -3.0830 O         1 <0>         0.0000
   8828 WAT       -37.4320  -74.9160   -2.8330 O         1 <0>         0.0000
   8829 WAT       -37.4320  -74.9160   -2.5830 O         1 <0>         0.0000
   8830 WAT       -37.4320  -74.9160   -2.3330 O         1 <0>         0.0000
   8831 WAT       -37.4320  -74.9160   -2.0830 O         1 <0>         0.0000
   8832 WAT       -37.4320  -74.9160   -1.8330 O         1 <0>         0.0000
   8833 WAT       -37.4320  -74.9160   -1.5830 O         1 <0>         0.0000
   8834 WAT       -37.4320  -74.9160   -1.3330 O         1 <0>         0.0000
   8835 WAT       -37.4320  -74.9160   -1.0830 O         1 <0>         0.0000
   8836 WAT       -37.4320  -74.9160   -0.8330 O         1 <0>         0.0000
   8837 WAT       -37.4320  -74.9160   -0.5830 O         1 <0>         0.0000
   8838 WAT       -37.4320  -74.9160   -0.3330 O         1 <0>         0.0000
   8839 WAT       -37.4320  -74.9160   -0.0830 O         1 <0>         0.0000
   8840 WAT       -37.4320  -74.6660   -9.8330 O         1 <0>         0.0000
   8841 WAT       -37.4320  -74.6660   -9.5830 O         1 <0>         0.0000
   8842 WAT       -37.4320  -74.6660   -9.3330 O         1 <0>         0.0000
   8843 WAT       -37.4320  -74.6660   -9.0830 O         1 <0>         0.0000
   8844 WAT       -37.4320  -74.6660   -8.8330 O         1 <0>         0.0000
   8845 WAT       -37.4320  -74.6660   -8.5830 O         1 <0>         0.0000
   8846 WAT       -37.4320  -74.6660   -8.3330 O         1 <0>         0.0000
   8847 WAT       -37.4320  -74.6660   -8.0830 O         1 <0>         0.0000
   8848 WAT       -37.4320  -74.6660   -7.8330 O         1 <0>         0.0000
   8849 WAT       -37.4320  -74.6660   -7.5830 O         1 <0>         0.0000
   8850 WAT       -37.4320  -74.6660   -7.3330 O         1 <0>         0.0000
   8851 WAT       -37.4320  -74.6660   -7.0830 O         1 <0>         0.0000
   8852 WAT       -37.4320  -74.6660   -6.8330 O         1 <0>         0.0000
   8853 WAT       -37.4320  -74.6660   -6.5830 O         1 <0>         0.0000
   8854 WAT       -37.4320  -74.6660   -6.3330 O         1 <0>         0.0000
   8855 WAT       -37.4320  -74.6660   -6.0830 O         1 <0>         0.0000
   8856 WAT       -37.4320  -74.6660   -5.8330 O         1 <0>         0.0000
   8857 WAT       -37.4320  -74.6660   -5.5830 O         1 <0>         0.0001
   8858 WAT       -37.4320  -74.6660   -5.3330 O         1 <0>         0.0002
   8859 WAT       -37.4320  -74.6660   -5.0830 O         1 <0>         0.0004
   8860 WAT       -37.4320  -74.6660   -4.8330 O         1 <0>         0.0006
   8861 WAT       -37.4320  -74.6660   -4.5830 O         1 <0>         0.0006
   8862 WAT       -37.4320  -74.6660   -4.3330 O         1 <0>         0.0004
   8863 WAT       -37.4320  -74.6660   -4.0830 O         1 <0>         0.0002
   8864 WAT       -37.4320  -74.6660   -3.8330 O         1 <0>         0.0001
   8865 WAT       -37.4320  -74.6660   -3.5830 O         1 <0>         0.0000
   8866 WAT       -37.4320  -74.6660   -3.3330 O         1 <0>         0.0000
   8867 WAT       -37.4320  -74.6660   -3.0830 O         1 <0>         0.0000
   8868 WAT       -37.4320  -74.6660   -2.8330 O         1 <0>         0.0000
   8869 WAT       -37.4320  -74.6660   -2.5830 O         1 <0>         0.0000
   8870 WAT       -37.4320  -74.6660   -2.3330 O         1 <0>         0.0000
   8871 WAT       -37.4320  -74.6660   -2.0830 O         1 <0>         0.0000
   8872 WAT       -37.4320  -74.6660   -1.8330 O         1 <0>         0.0000
   8873 WAT       -37.4320  -74.6660   -1.5830 O         1 <0>         0.0000
   8874 WAT       -37.4320  -74.6660   -1.3330 O         1 <0>         0.0000
   8875 WAT       -37.4320  -74.6660   -1.0830 O         1 <0>         0.0000
   8876 WAT       -37.4320  -74.6660   -0.8330 O         1 <0>         0.0000
   8877 WAT       -37.4320  -74.6660   -0.5830 O         1 <0>         0.0000
   8878 WAT       -37.4320  -74.6660   -0.3330 O         1 <0>         0.0000
   8879 WAT       -37.4320  -74.6660   -0.0830 O         1 <0>         0.0000
   8880 WAT       -37.4320  -74.4160   -9.8330 O         1 <0>         0.0000
   8881 WAT       -37.4320  -74.4160   -9.5830 O         1 <0>         0.0000
   8882 WAT       -37.4320  -74.4160   -9.3330 O         1 <0>         0.0000
   8883 WAT       -37.4320  -74.4160   -9.0830 O         1 <0>         0.0000
   8884 WAT       -37.4320  -74.4160   -8.8330 O         1 <0>         0.0000
   8885 WAT       -37.4320  -74.4160   -8.5830 O         1 <0>         0.0000
   8886 WAT       -37.4320  -74.4160   -8.3330 O         1 <0>         0.0000
   8887 WAT       -37.4320  -74.4160   -8.0830 O         1 <0>         0.0000
   8888 WAT       -37.4320  -74.4160   -7.8330 O         1 <0>         0.0000
   8889 WAT       -37.4320  -74.4160   -7.5830 O         1 <0>         0.0000
   8890 WAT       -37.4320  -74.4160   -7.3330 O         1 <0>         0.0000
   8891 WAT       -37.4320  -74.4160   -7.0830 O         1 <0>         0.0000
   8892 WAT       -37.4320  -74.4160   -6.8330 O         1 <0>         0.0000
   8893 WAT       -37.4320  -74.4160   -6.5830 O         1 <0>         0.0000
   8894 WAT       -37.4320  -74.4160   -6.3330 O         1 <0>         0.0000
   8895 WAT       -37.4320  -74.4160   -6.0830 O         1 <0>         0.0000
   8896 WAT       -37.4320  -74.4160   -5.8330 O         1 <0>         0.0001
   8897 WAT       -37.4320  -74.4160   -5.5830 O         1 <0>         0.0002
   8898 WAT       -37.4320  -74.4160   -5.3330 O         1 <0>         0.0004
   8899 WAT       -37.4320  -74.4160   -5.0830 O         1 <0>         0.0006
   8900 WAT       -37.4320  -74.4160   -4.8330 O         1 <0>         0.0008
   8901 WAT       -37.4320  -74.4160   -4.5830 O         1 <0>         0.0007
   8902 WAT       -37.4320  -74.4160   -4.3330 O         1 <0>         0.0005
   8903 WAT       -37.4320  -74.4160   -4.0830 O         1 <0>         0.0002
   8904 WAT       -37.4320  -74.4160   -3.8330 O         1 <0>         0.0001
   8905 WAT       -37.4320  -74.4160   -3.5830 O         1 <0>         0.0000
   8906 WAT       -37.4320  -74.4160   -3.3330 O         1 <0>         0.0000
   8907 WAT       -37.4320  -74.4160   -3.0830 O         1 <0>         0.0000
   8908 WAT       -37.4320  -74.4160   -2.8330 O         1 <0>         0.0000
   8909 WAT       -37.4320  -74.4160   -2.5830 O         1 <0>         0.0000
   8910 WAT       -37.4320  -74.4160   -2.3330 O         1 <0>         0.0000
   8911 WAT       -37.4320  -74.4160   -2.0830 O         1 <0>         0.0000
   8912 WAT       -37.4320  -74.4160   -1.8330 O         1 <0>         0.0000
   8913 WAT       -37.4320  -74.4160   -1.5830 O         1 <0>         0.0000
   8914 WAT       -37.4320  -74.4160   -1.3330 O         1 <0>         0.0000
   8915 WAT       -37.4320  -74.4160   -1.0830 O         1 <0>         0.0000
   8916 WAT       -37.4320  -74.4160   -0.8330 O         1 <0>         0.0000
   8917 WAT       -37.4320  -74.4160   -0.5830 O         1 <0>         0.0000
   8918 WAT       -37.4320  -74.4160   -0.3330 O         1 <0>         0.0000
   8919 WAT       -37.4320  -74.4160   -0.0830 O         1 <0>         0.0000
   8920 WAT       -37.4320  -74.1660   -9.8330 O         1 <0>         0.0000
   8921 WAT       -37.4320  -74.1660   -9.5830 O         1 <0>         0.0000
   8922 WAT       -37.4320  -74.1660   -9.3330 O         1 <0>         0.0000
   8923 WAT       -37.4320  -74.1660   -9.0830 O         1 <0>         0.0000
   8924 WAT       -37.4320  -74.1660   -8.8330 O         1 <0>         0.0000
   8925 WAT       -37.4320  -74.1660   -8.5830 O         1 <0>         0.0000
   8926 WAT       -37.4320  -74.1660   -8.3330 O         1 <0>         0.0000
   8927 WAT       -37.4320  -74.1660   -8.0830 O         1 <0>         0.0000
   8928 WAT       -37.4320  -74.1660   -7.8330 O         1 <0>         0.0000
   8929 WAT       -37.4320  -74.1660   -7.5830 O         1 <0>         0.0000
   8930 WAT       -37.4320  -74.1660   -7.3330 O         1 <0>         0.0000
   8931 WAT       -37.4320  -74.1660   -7.0830 O         1 <0>         0.0000
   8932 WAT       -37.4320  -74.1660   -6.8330 O         1 <0>         0.0000
   8933 WAT       -37.4320  -74.1660   -6.5830 O         1 <0>         0.0000
   8934 WAT       -37.4320  -74.1660   -6.3330 O         1 <0>         0.0000
   8935 WAT       -37.4320  -74.1660   -6.0830 O         1 <0>         0.0001
   8936 WAT       -37.4320  -74.1660   -5.8330 O         1 <0>         0.0003
   8937 WAT       -37.4320  -74.1660   -5.5830 O         1 <0>         0.0005
   8938 WAT       -37.4320  -74.1660   -5.3330 O         1 <0>         0.0006
   8939 WAT       -37.4320  -74.1660   -5.0830 O         1 <0>         0.0006
   8940 WAT       -37.4320  -74.1660   -4.8330 O         1 <0>         0.0006
   8941 WAT       -37.4320  -74.1660   -4.5830 O         1 <0>         0.0006
   8942 WAT       -37.4320  -74.1660   -4.3330 O         1 <0>         0.0004
   8943 WAT       -37.4320  -74.1660   -4.0830 O         1 <0>         0.0002
   8944 WAT       -37.4320  -74.1660   -3.8330 O         1 <0>         0.0001
   8945 WAT       -37.4320  -74.1660   -3.5830 O         1 <0>         0.0000
   8946 WAT       -37.4320  -74.1660   -3.3330 O         1 <0>         0.0000
   8947 WAT       -37.4320  -74.1660   -3.0830 O         1 <0>         0.0000
   8948 WAT       -37.4320  -74.1660   -2.8330 O         1 <0>         0.0000
   8949 WAT       -37.4320  -74.1660   -2.5830 O         1 <0>         0.0000
   8950 WAT       -37.4320  -74.1660   -2.3330 O         1 <0>         0.0000
   8951 WAT       -37.4320  -74.1660   -2.0830 O         1 <0>         0.0000
   8952 WAT       -37.4320  -74.1660   -1.8330 O         1 <0>         0.0000
   8953 WAT       -37.4320  -74.1660   -1.5830 O         1 <0>         0.0000
   8954 WAT       -37.4320  -74.1660   -1.3330 O         1 <0>         0.0000
   8955 WAT       -37.4320  -74.1660   -1.0830 O         1 <0>         0.0000
   8956 WAT       -37.4320  -74.1660   -0.8330 O         1 <0>         0.0000
   8957 WAT       -37.4320  -74.1660   -0.5830 O         1 <0>         0.0000
   8958 WAT       -37.4320  -74.1660   -0.3330 O         1 <0>         0.0000
   8959 WAT       -37.4320  -74.1660   -0.0830 O         1 <0>         0.0000
   8960 WAT       -37.4320  -73.9160   -9.8330 O         1 <0>         0.0000
   8961 WAT       -37.4320  -73.9160   -9.5830 O         1 <0>         0.0000
   8962 WAT       -37.4320  -73.9160   -9.3330 O         1 <0>         0.0000
   8963 WAT       -37.4320  -73.9160   -9.0830 O         1 <0>         0.0000
   8964 WAT       -37.4320  -73.9160   -8.8330 O         1 <0>         0.0000
   8965 WAT       -37.4320  -73.9160   -8.5830 O         1 <0>         0.0000
   8966 WAT       -37.4320  -73.9160   -8.3330 O         1 <0>         0.0000
   8967 WAT       -37.4320  -73.9160   -8.0830 O         1 <0>         0.0000
   8968 WAT       -37.4320  -73.9160   -7.8330 O         1 <0>         0.0000
   8969 WAT       -37.4320  -73.9160   -7.5830 O         1 <0>         0.0000
   8970 WAT       -37.4320  -73.9160   -7.3330 O         1 <0>         0.0000
   8971 WAT       -37.4320  -73.9160   -7.0830 O         1 <0>         0.0000
   8972 WAT       -37.4320  -73.9160   -6.8330 O         1 <0>         0.0000
   8973 WAT       -37.4320  -73.9160   -6.5830 O         1 <0>         0.0000
   8974 WAT       -37.4320  -73.9160   -6.3330 O         1 <0>         0.0001
   8975 WAT       -37.4320  -73.9160   -6.0830 O         1 <0>         0.0004
   8976 WAT       -37.4320  -73.9160   -5.8330 O         1 <0>         0.0007
   8977 WAT       -37.4320  -73.9160   -5.5830 O         1 <0>         0.0008
   8978 WAT       -37.4320  -73.9160   -5.3330 O         1 <0>         0.0007
   8979 WAT       -37.4320  -73.9160   -5.0830 O         1 <0>         0.0005
   8980 WAT       -37.4320  -73.9160   -4.8330 O         1 <0>         0.0004
   8981 WAT       -37.4320  -73.9160   -4.5830 O         1 <0>         0.0003
   8982 WAT       -37.4320  -73.9160   -4.3330 O         1 <0>         0.0002
   8983 WAT       -37.4320  -73.9160   -4.0830 O         1 <0>         0.0001
   8984 WAT       -37.4320  -73.9160   -3.8330 O         1 <0>         0.0000
   8985 WAT       -37.4320  -73.9160   -3.5830 O         1 <0>         0.0000
   8986 WAT       -37.4320  -73.9160   -3.3330 O         1 <0>         0.0000
   8987 WAT       -37.4320  -73.9160   -3.0830 O         1 <0>         0.0000
   8988 WAT       -37.4320  -73.9160   -2.8330 O         1 <0>         0.0000
   8989 WAT       -37.4320  -73.9160   -2.5830 O         1 <0>         0.0000
   8990 WAT       -37.4320  -73.9160   -2.3330 O         1 <0>         0.0000
   8991 WAT       -37.4320  -73.9160   -2.0830 O         1 <0>         0.0000
   8992 WAT       -37.4320  -73.9160   -1.8330 O         1 <0>         0.0000
   8993 WAT       -37.4320  -73.9160   -1.5830 O         1 <0>         0.0000
   8994 WAT       -37.4320  -73.9160   -1.3330 O         1 <0>         0.0000
   8995 WAT       -37.4320  -73.9160   -1.0830 O         1 <0>         0.0000
   8996 WAT       -37.4320  -73.9160   -0.8330 O         1 <0>         0.0000
   8997 WAT       -37.4320  -73.9160   -0.5830 O         1 <0>         0.0000
   8998 WAT       -37.4320  -73.9160   -0.3330 O         1 <0>         0.0000
   8999 WAT       -37.4320  -73.9160   -0.0830 O         1 <0>         0.0000
   9000 WAT       -37.4320  -73.6660   -9.8330 O         1 <0>         0.0000
   9001 WAT       -37.4320  -73.6660   -9.5830 O         1 <0>         0.0000
   9002 WAT       -37.4320  -73.6660   -9.3330 O         1 <0>         0.0000
   9003 WAT       -37.4320  -73.6660   -9.0830 O         1 <0>         0.0000
   9004 WAT       -37.4320  -73.6660   -8.8330 O         1 <0>         0.0000
   9005 WAT       -37.4320  -73.6660   -8.5830 O         1 <0>         0.0000
   9006 WAT       -37.4320  -73.6660   -8.3330 O         1 <0>         0.0000
   9007 WAT       -37.4320  -73.6660   -8.0830 O         1 <0>         0.0000
   9008 WAT       -37.4320  -73.6660   -7.8330 O         1 <0>         0.0000
   9009 WAT       -37.4320  -73.6660   -7.5830 O         1 <0>         0.0000
   9010 WAT       -37.4320  -73.6660   -7.3330 O         1 <0>         0.0000
   9011 WAT       -37.4320  -73.6660   -7.0830 O         1 <0>         0.0000
   9012 WAT       -37.4320  -73.6660   -6.8330 O         1 <0>         0.0000
   9013 WAT       -37.4320  -73.6660   -6.5830 O         1 <0>         0.0000
   9014 WAT       -37.4320  -73.6660   -6.3330 O         1 <0>         0.0002
   9015 WAT       -37.4320  -73.6660   -6.0830 O         1 <0>         0.0005
   9016 WAT       -37.4320  -73.6660   -5.8330 O         1 <0>         0.0009
   9017 WAT       -37.4320  -73.6660   -5.5830 O         1 <0>         0.0010
   9018 WAT       -37.4320  -73.6660   -5.3330 O         1 <0>         0.0007
   9019 WAT       -37.4320  -73.6660   -5.0830 O         1 <0>         0.0004
   9020 WAT       -37.4320  -73.6660   -4.8330 O         1 <0>         0.0002
   9021 WAT       -37.4320  -73.6660   -4.5830 O         1 <0>         0.0001
   9022 WAT       -37.4320  -73.6660   -4.3330 O         1 <0>         0.0001
   9023 WAT       -37.4320  -73.6660   -4.0830 O         1 <0>         0.0000
   9024 WAT       -37.4320  -73.6660   -3.8330 O         1 <0>         0.0000
   9025 WAT       -37.4320  -73.6660   -3.5830 O         1 <0>         0.0000
   9026 WAT       -37.4320  -73.6660   -3.3330 O         1 <0>         0.0000
   9027 WAT       -37.4320  -73.6660   -3.0830 O         1 <0>         0.0000
   9028 WAT       -37.4320  -73.6660   -2.8330 O         1 <0>         0.0000
   9029 WAT       -37.4320  -73.6660   -2.5830 O         1 <0>         0.0000
   9030 WAT       -37.4320  -73.6660   -2.3330 O         1 <0>         0.0000
   9031 WAT       -37.4320  -73.6660   -2.0830 O         1 <0>         0.0000
   9032 WAT       -37.4320  -73.6660   -1.8330 O         1 <0>         0.0000
   9033 WAT       -37.4320  -73.6660   -1.5830 O         1 <0>         0.0000
   9034 WAT       -37.4320  -73.6660   -1.3330 O         1 <0>         0.0000
   9035 WAT       -37.4320  -73.6660   -1.0830 O         1 <0>         0.0000
   9036 WAT       -37.4320  -73.6660   -0.8330 O         1 <0>         0.0000
   9037 WAT       -37.4320  -73.6660   -0.5830 O         1 <0>         0.0000
   9038 WAT       -37.4320  -73.6660   -0.3330 O         1 <0>         0.0000
   9039 WAT       -37.4320  -73.6660   -0.0830 O         1 <0>         0.0000
   9040 WAT       -37.4320  -73.4160   -9.8330 O         1 <0>         0.0000
   9041 WAT       -37.4320  -73.4160   -9.5830 O         1 <0>         0.0000
   9042 WAT       -37.4320  -73.4160   -9.3330 O         1 <0>         0.0000
   9043 WAT       -37.4320  -73.4160   -9.0830 O         1 <0>         0.0000
   9044 WAT       -37.4320  -73.4160   -8.8330 O         1 <0>         0.0000
   9045 WAT       -37.4320  -73.4160   -8.5830 O         1 <0>         0.0000
   9046 WAT       -37.4320  -73.4160   -8.3330 O         1 <0>         0.0000
   9047 WAT       -37.4320  -73.4160   -8.0830 O         1 <0>         0.0000
   9048 WAT       -37.4320  -73.4160   -7.8330 O         1 <0>         0.0000
   9049 WAT       -37.4320  -73.4160   -7.5830 O         1 <0>         0.0000
   9050 WAT       -37.4320  -73.4160   -7.3330 O         1 <0>         0.0000
   9051 WAT       -37.4320  -73.4160   -7.0830 O         1 <0>         0.0000
   9052 WAT       -37.4320  -73.4160   -6.8330 O         1 <0>         0.0000
   9053 WAT       -37.4320  -73.4160   -6.5830 O         1 <0>         0.0000
   9054 WAT       -37.4320  -73.4160   -6.3330 O         1 <0>         0.0001
   9055 WAT       -37.4320  -73.4160   -6.0830 O         1 <0>         0.0005
   9056 WAT       -37.4320  -73.4160   -5.8330 O         1 <0>         0.0008
   9057 WAT       -37.4320  -73.4160   -5.5830 O         1 <0>         0.0008
   9058 WAT       -37.4320  -73.4160   -5.3330 O         1 <0>         0.0005
   9059 WAT       -37.4320  -73.4160   -5.0830 O         1 <0>         0.0002
   9060 WAT       -37.4320  -73.4160   -4.8330 O         1 <0>         0.0001
   9061 WAT       -37.4320  -73.4160   -4.5830 O         1 <0>         0.0000
   9062 WAT       -37.4320  -73.4160   -4.3330 O         1 <0>         0.0000
   9063 WAT       -37.4320  -73.4160   -4.0830 O         1 <0>         0.0000
   9064 WAT       -37.4320  -73.4160   -3.8330 O         1 <0>         0.0000
   9065 WAT       -37.4320  -73.4160   -3.5830 O         1 <0>         0.0000
   9066 WAT       -37.4320  -73.4160   -3.3330 O         1 <0>         0.0000
   9067 WAT       -37.4320  -73.4160   -3.0830 O         1 <0>         0.0000
   9068 WAT       -37.4320  -73.4160   -2.8330 O         1 <0>         0.0000
   9069 WAT       -37.4320  -73.4160   -2.5830 O         1 <0>         0.0000
   9070 WAT       -37.4320  -73.4160   -2.3330 O         1 <0>         0.0000
   9071 WAT       -37.4320  -73.4160   -2.0830 O         1 <0>         0.0000
   9072 WAT       -37.4320  -73.4160   -1.8330 O         1 <0>         0.0000
   9073 WAT       -37.4320  -73.4160   -1.5830 O         1 <0>         0.0000
   9074 WAT       -37.4320  -73.4160   -1.3330 O         1 <0>         0.0000
   9075 WAT       -37.4320  -73.4160   -1.0830 O         1 <0>         0.0000
   9076 WAT       -37.4320  -73.4160   -0.8330 O         1 <0>         0.0000
   9077 WAT       -37.4320  -73.4160   -0.5830 O         1 <0>         0.0000
   9078 WAT       -37.4320  -73.4160   -0.3330 O         1 <0>         0.0000
   9079 WAT       -37.4320  -73.4160   -0.0830 O         1 <0>         0.0000
   9080 WAT       -37.4320  -73.1660   -9.8330 O         1 <0>         0.0000
   9081 WAT       -37.4320  -73.1660   -9.5830 O         1 <0>         0.0000
   9082 WAT       -37.4320  -73.1660   -9.3330 O         1 <0>         0.0000
   9083 WAT       -37.4320  -73.1660   -9.0830 O         1 <0>         0.0000
   9084 WAT       -37.4320  -73.1660   -8.8330 O         1 <0>         0.0000
   9085 WAT       -37.4320  -73.1660   -8.5830 O         1 <0>         0.0000
   9086 WAT       -37.4320  -73.1660   -8.3330 O         1 <0>         0.0000
   9087 WAT       -37.4320  -73.1660   -8.0830 O         1 <0>         0.0000
   9088 WAT       -37.4320  -73.1660   -7.8330 O         1 <0>         0.0000
   9089 WAT       -37.4320  -73.1660   -7.5830 O         1 <0>         0.0000
   9090 WAT       -37.4320  -73.1660   -7.3330 O         1 <0>         0.0000
   9091 WAT       -37.4320  -73.1660   -7.0830 O         1 <0>         0.0000
   9092 WAT       -37.4320  -73.1660   -6.8330 O         1 <0>         0.0000
   9093 WAT       -37.4320  -73.1660   -6.5830 O         1 <0>         0.0000
   9094 WAT       -37.4320  -73.1660   -6.3330 O         1 <0>         0.0001
   9095 WAT       -37.4320  -73.1660   -6.0830 O         1 <0>         0.0002
   9096 WAT       -37.4320  -73.1660   -5.8330 O         1 <0>         0.0004
   9097 WAT       -37.4320  -73.1660   -5.5830 O         1 <0>         0.0004
   9098 WAT       -37.4320  -73.1660   -5.3330 O         1 <0>         0.0003
   9099 WAT       -37.4320  -73.1660   -5.0830 O         1 <0>         0.0001
   9100 WAT       -37.4320  -73.1660   -4.8330 O         1 <0>         0.0000
   9101 WAT       -37.4320  -73.1660   -4.5830 O         1 <0>         0.0000
   9102 WAT       -37.4320  -73.1660   -4.3330 O         1 <0>         0.0000
   9103 WAT       -37.4320  -73.1660   -4.0830 O         1 <0>         0.0000
   9104 WAT       -37.4320  -73.1660   -3.8330 O         1 <0>         0.0000
   9105 WAT       -37.4320  -73.1660   -3.5830 O         1 <0>         0.0000
   9106 WAT       -37.4320  -73.1660   -3.3330 O         1 <0>         0.0000
   9107 WAT       -37.4320  -73.1660   -3.0830 O         1 <0>         0.0000
   9108 WAT       -37.4320  -73.1660   -2.8330 O         1 <0>         0.0000
   9109 WAT       -37.4320  -73.1660   -2.5830 O         1 <0>         0.0000
   9110 WAT       -37.4320  -73.1660   -2.3330 O         1 <0>         0.0000
   9111 WAT       -37.4320  -73.1660   -2.0830 O         1 <0>         0.0000
   9112 WAT       -37.4320  -73.1660   -1.8330 O         1 <0>         0.0000
   9113 WAT       -37.4320  -73.1660   -1.5830 O         1 <0>         0.0000
   9114 WAT       -37.4320  -73.1660   -1.3330 O         1 <0>         0.0000
   9115 WAT       -37.4320  -73.1660   -1.0830 O         1 <0>         0.0000
   9116 WAT       -37.4320  -73.1660   -0.8330 O         1 <0>         0.0000
   9117 WAT       -37.4320  -73.1660   -0.5830 O         1 <0>         0.0000
   9118 WAT       -37.4320  -73.1660   -0.3330 O         1 <0>         0.0000
   9119 WAT       -37.4320  -73.1660   -0.0830 O         1 <0>         0.0000
   9120 WAT       -37.4320  -72.9160   -9.8330 O         1 <0>         0.0000
   9121 WAT       -37.4320  -72.9160   -9.5830 O         1 <0>         0.0000
   9122 WAT       -37.4320  -72.9160   -9.3330 O         1 <0>         0.0000
   9123 WAT       -37.4320  -72.9160   -9.0830 O         1 <0>         0.0000
   9124 WAT       -37.4320  -72.9160   -8.8330 O         1 <0>         0.0000
   9125 WAT       -37.4320  -72.9160   -8.5830 O         1 <0>         0.0000
   9126 WAT       -37.4320  -72.9160   -8.3330 O         1 <0>         0.0000
   9127 WAT       -37.4320  -72.9160   -8.0830 O         1 <0>         0.0000
   9128 WAT       -37.4320  -72.9160   -7.8330 O         1 <0>         0.0000
   9129 WAT       -37.4320  -72.9160   -7.5830 O         1 <0>         0.0000
   9130 WAT       -37.4320  -72.9160   -7.3330 O         1 <0>         0.0000
   9131 WAT       -37.4320  -72.9160   -7.0830 O         1 <0>         0.0000
   9132 WAT       -37.4320  -72.9160   -6.8330 O         1 <0>         0.0000
   9133 WAT       -37.4320  -72.9160   -6.5830 O         1 <0>         0.0000
   9134 WAT       -37.4320  -72.9160   -6.3330 O         1 <0>         0.0000
   9135 WAT       -37.4320  -72.9160   -6.0830 O         1 <0>         0.0001
   9136 WAT       -37.4320  -72.9160   -5.8330 O         1 <0>         0.0001
   9137 WAT       -37.4320  -72.9160   -5.5830 O         1 <0>         0.0001
   9138 WAT       -37.4320  -72.9160   -5.3330 O         1 <0>         0.0001
   9139 WAT       -37.4320  -72.9160   -5.0830 O         1 <0>         0.0000
   9140 WAT       -37.4320  -72.9160   -4.8330 O         1 <0>         0.0000
   9141 WAT       -37.4320  -72.9160   -4.5830 O         1 <0>         0.0000
   9142 WAT       -37.4320  -72.9160   -4.3330 O         1 <0>         0.0000
   9143 WAT       -37.4320  -72.9160   -4.0830 O         1 <0>         0.0000
   9144 WAT       -37.4320  -72.9160   -3.8330 O         1 <0>         0.0000
   9145 WAT       -37.4320  -72.9160   -3.5830 O         1 <0>         0.0000
   9146 WAT       -37.4320  -72.9160   -3.3330 O         1 <0>         0.0000
   9147 WAT       -37.4320  -72.9160   -3.0830 O         1 <0>         0.0000
   9148 WAT       -37.4320  -72.9160   -2.8330 O         1 <0>         0.0000
   9149 WAT       -37.4320  -72.9160   -2.5830 O         1 <0>         0.0000
   9150 WAT       -37.4320  -72.9160   -2.3330 O         1 <0>         0.0000
   9151 WAT       -37.4320  -72.9160   -2.0830 O         1 <0>         0.0000
   9152 WAT       -37.4320  -72.9160   -1.8330 O         1 <0>         0.0000
   9153 WAT       -37.4320  -72.9160   -1.5830 O         1 <0>         0.0000
   9154 WAT       -37.4320  -72.9160   -1.3330 O         1 <0>         0.0000
   9155 WAT       -37.4320  -72.9160   -1.0830 O         1 <0>         0.0000
   9156 WAT       -37.4320  -72.9160   -0.8330 O         1 <0>         0.0000
   9157 WAT       -37.4320  -72.9160   -0.5830 O         1 <0>         0.0000
   9158 WAT       -37.4320  -72.9160   -0.3330 O         1 <0>         0.0000
   9159 WAT       -37.4320  -72.9160   -0.0830 O         1 <0>         0.0000
   9160 WAT       -37.4320  -72.6660   -9.8330 O         1 <0>         0.0000
   9161 WAT       -37.4320  -72.6660   -9.5830 O         1 <0>         0.0000
   9162 WAT       -37.4320  -72.6660   -9.3330 O         1 <0>         0.0000
   9163 WAT       -37.4320  -72.6660   -9.0830 O         1 <0>         0.0000
   9164 WAT       -37.4320  -72.6660   -8.8330 O         1 <0>         0.0000
   9165 WAT       -37.4320  -72.6660   -8.5830 O         1 <0>         0.0000
   9166 WAT       -37.4320  -72.6660   -8.3330 O         1 <0>         0.0000
   9167 WAT       -37.4320  -72.6660   -8.0830 O         1 <0>         0.0000
   9168 WAT       -37.4320  -72.6660   -7.8330 O         1 <0>         0.0000
   9169 WAT       -37.4320  -72.6660   -7.5830 O         1 <0>         0.0000
   9170 WAT       -37.4320  -72.6660   -7.3330 O         1 <0>         0.0000
   9171 WAT       -37.4320  -72.6660   -7.0830 O         1 <0>         0.0000
   9172 WAT       -37.4320  -72.6660   -6.8330 O         1 <0>         0.0000
   9173 WAT       -37.4320  -72.6660   -6.5830 O         1 <0>         0.0000
   9174 WAT       -37.4320  -72.6660   -6.3330 O         1 <0>         0.0000
   9175 WAT       -37.4320  -72.6660   -6.0830 O         1 <0>         0.0000
   9176 WAT       -37.4320  -72.6660   -5.8330 O         1 <0>         0.0000
   9177 WAT       -37.4320  -72.6660   -5.5830 O         1 <0>         0.0000
   9178 WAT       -37.4320  -72.6660   -5.3330 O         1 <0>         0.0000
   9179 WAT       -37.4320  -72.6660   -5.0830 O         1 <0>         0.0000
   9180 WAT       -37.4320  -72.6660   -4.8330 O         1 <0>         0.0000
   9181 WAT       -37.4320  -72.6660   -4.5830 O         1 <0>         0.0000
   9182 WAT       -37.4320  -72.6660   -4.3330 O         1 <0>         0.0000
   9183 WAT       -37.4320  -72.6660   -4.0830 O         1 <0>         0.0000
   9184 WAT       -37.4320  -72.6660   -3.8330 O         1 <0>         0.0000
   9185 WAT       -37.4320  -72.6660   -3.5830 O         1 <0>         0.0000
   9186 WAT       -37.4320  -72.6660   -3.3330 O         1 <0>         0.0000
   9187 WAT       -37.4320  -72.6660   -3.0830 O         1 <0>         0.0000
   9188 WAT       -37.4320  -72.6660   -2.8330 O         1 <0>         0.0000
   9189 WAT       -37.4320  -72.6660   -2.5830 O         1 <0>         0.0000
   9190 WAT       -37.4320  -72.6660   -2.3330 O         1 <0>         0.0000
   9191 WAT       -37.4320  -72.6660   -2.0830 O         1 <0>         0.0000
   9192 WAT       -37.4320  -72.6660   -1.8330 O         1 <0>         0.0000
   9193 WAT       -37.4320  -72.6660   -1.5830 O         1 <0>         0.0000
   9194 WAT       -37.4320  -72.6660   -1.3330 O         1 <0>         0.0000
   9195 WAT       -37.4320  -72.6660   -1.0830 O         1 <0>         0.0000
   9196 WAT       -37.4320  -72.6660   -0.8330 O         1 <0>         0.0000
   9197 WAT       -37.4320  -72.6660   -0.5830 O         1 <0>         0.0000
   9198 WAT       -37.4320  -72.6660   -0.3330 O         1 <0>         0.0000
   9199 WAT       -37.4320  -72.6660   -0.0830 O         1 <0>         0.0000
   9200 WAT       -37.4320  -72.4160   -9.8330 O         1 <0>         0.0000
   9201 WAT       -37.4320  -72.4160   -9.5830 O         1 <0>         0.0000
   9202 WAT       -37.4320  -72.4160   -9.3330 O         1 <0>         0.0000
   9203 WAT       -37.4320  -72.4160   -9.0830 O         1 <0>         0.0000
   9204 WAT       -37.4320  -72.4160   -8.8330 O         1 <0>         0.0000
   9205 WAT       -37.4320  -72.4160   -8.5830 O         1 <0>         0.0000
   9206 WAT       -37.4320  -72.4160   -8.3330 O         1 <0>         0.0000
   9207 WAT       -37.4320  -72.4160   -8.0830 O         1 <0>         0.0000
   9208 WAT       -37.4320  -72.4160   -7.8330 O         1 <0>         0.0000
   9209 WAT       -37.4320  -72.4160   -7.5830 O         1 <0>         0.0000
   9210 WAT       -37.4320  -72.4160   -7.3330 O         1 <0>         0.0000
   9211 WAT       -37.4320  -72.4160   -7.0830 O         1 <0>         0.0000
   9212 WAT       -37.4320  -72.4160   -6.8330 O         1 <0>         0.0000
   9213 WAT       -37.4320  -72.4160   -6.5830 O         1 <0>         0.0000
   9214 WAT       -37.4320  -72.4160   -6.3330 O         1 <0>         0.0000
   9215 WAT       -37.4320  -72.4160   -6.0830 O         1 <0>         0.0000
   9216 WAT       -37.4320  -72.4160   -5.8330 O         1 <0>         0.0000
   9217 WAT       -37.4320  -72.4160   -5.5830 O         1 <0>         0.0000
   9218 WAT       -37.4320  -72.4160   -5.3330 O         1 <0>         0.0000
   9219 WAT       -37.4320  -72.4160   -5.0830 O         1 <0>         0.0000
   9220 WAT       -37.4320  -72.4160   -4.8330 O         1 <0>         0.0000
   9221 WAT       -37.4320  -72.4160   -4.5830 O         1 <0>         0.0000
   9222 WAT       -37.4320  -72.4160   -4.3330 O         1 <0>         0.0000
   9223 WAT       -37.4320  -72.4160   -4.0830 O         1 <0>         0.0000
   9224 WAT       -37.4320  -72.4160   -3.8330 O         1 <0>         0.0000
   9225 WAT       -37.4320  -72.4160   -3.5830 O         1 <0>         0.0000
   9226 WAT       -37.4320  -72.4160   -3.3330 O         1 <0>         0.0000
   9227 WAT       -37.4320  -72.4160   -3.0830 O         1 <0>         0.0000
   9228 WAT       -37.4320  -72.4160   -2.8330 O         1 <0>         0.0000
   9229 WAT       -37.4320  -72.4160   -2.5830 O         1 <0>         0.0000
   9230 WAT       -37.4320  -72.4160   -2.3330 O         1 <0>         0.0000
   9231 WAT       -37.4320  -72.4160   -2.0830 O         1 <0>         0.0000
   9232 WAT       -37.4320  -72.4160   -1.8330 O         1 <0>         0.0000
   9233 WAT       -37.4320  -72.4160   -1.5830 O         1 <0>         0.0000
   9234 WAT       -37.4320  -72.4160   -1.3330 O         1 <0>         0.0000
   9235 WAT       -37.4320  -72.4160   -1.0830 O         1 <0>         0.0000
   9236 WAT       -37.4320  -72.4160   -0.8330 O         1 <0>         0.0000
   9237 WAT       -37.4320  -72.4160   -0.5830 O         1 <0>         0.0000
   9238 WAT       -37.4320  -72.4160   -0.3330 O         1 <0>         0.0000
   9239 WAT       -37.4320  -72.4160   -0.0830 O         1 <0>         0.0000
   9240 WAT       -37.4320  -72.1660   -9.8330 O         1 <0>         0.0000
   9241 WAT       -37.4320  -72.1660   -9.5830 O         1 <0>         0.0000
   9242 WAT       -37.4320  -72.1660   -9.3330 O         1 <0>         0.0000
   9243 WAT       -37.4320  -72.1660   -9.0830 O         1 <0>         0.0000
   9244 WAT       -37.4320  -72.1660   -8.8330 O         1 <0>         0.0000
   9245 WAT       -37.4320  -72.1660   -8.5830 O         1 <0>         0.0000
   9246 WAT       -37.4320  -72.1660   -8.3330 O         1 <0>         0.0000
   9247 WAT       -37.4320  -72.1660   -8.0830 O         1 <0>         0.0000
   9248 WAT       -37.4320  -72.1660   -7.8330 O         1 <0>         0.0000
   9249 WAT       -37.4320  -72.1660   -7.5830 O         1 <0>         0.0000
   9250 WAT       -37.4320  -72.1660   -7.3330 O         1 <0>         0.0000
   9251 WAT       -37.4320  -72.1660   -7.0830 O         1 <0>         0.0000
   9252 WAT       -37.4320  -72.1660   -6.8330 O         1 <0>         0.0000
   9253 WAT       -37.4320  -72.1660   -6.5830 O         1 <0>         0.0000
   9254 WAT       -37.4320  -72.1660   -6.3330 O         1 <0>         0.0000
   9255 WAT       -37.4320  -72.1660   -6.0830 O         1 <0>         0.0000
   9256 WAT       -37.4320  -72.1660   -5.8330 O         1 <0>         0.0000
   9257 WAT       -37.4320  -72.1660   -5.5830 O         1 <0>         0.0000
   9258 WAT       -37.4320  -72.1660   -5.3330 O         1 <0>         0.0000
   9259 WAT       -37.4320  -72.1660   -5.0830 O         1 <0>         0.0000
   9260 WAT       -37.4320  -72.1660   -4.8330 O         1 <0>         0.0000
   9261 WAT       -37.4320  -72.1660   -4.5830 O         1 <0>         0.0000
   9262 WAT       -37.4320  -72.1660   -4.3330 O         1 <0>         0.0000
   9263 WAT       -37.4320  -72.1660   -4.0830 O         1 <0>         0.0000
   9264 WAT       -37.4320  -72.1660   -3.8330 O         1 <0>         0.0000
   9265 WAT       -37.4320  -72.1660   -3.5830 O         1 <0>         0.0000
   9266 WAT       -37.4320  -72.1660   -3.3330 O         1 <0>         0.0000
   9267 WAT       -37.4320  -72.1660   -3.0830 O         1 <0>         0.0000
   9268 WAT       -37.4320  -72.1660   -2.8330 O         1 <0>         0.0000
   9269 WAT       -37.4320  -72.1660   -2.5830 O         1 <0>         0.0000
   9270 WAT       -37.4320  -72.1660   -2.3330 O         1 <0>         0.0000
   9271 WAT       -37.4320  -72.1660   -2.0830 O         1 <0>         0.0000
   9272 WAT       -37.4320  -72.1660   -1.8330 O         1 <0>         0.0000
   9273 WAT       -37.4320  -72.1660   -1.5830 O         1 <0>         0.0000
   9274 WAT       -37.4320  -72.1660   -1.3330 O         1 <0>         0.0000
   9275 WAT       -37.4320  -72.1660   -1.0830 O         1 <0>         0.0000
   9276 WAT       -37.4320  -72.1660   -0.8330 O         1 <0>         0.0000
   9277 WAT       -37.4320  -72.1660   -0.5830 O         1 <0>         0.0000
   9278 WAT       -37.4320  -72.1660   -0.3330 O         1 <0>         0.0000
   9279 WAT       -37.4320  -72.1660   -0.0830 O         1 <0>         0.0000
   9280 WAT       -37.4320  -71.9160   -9.8330 O         1 <0>         0.0000
   9281 WAT       -37.4320  -71.9160   -9.5830 O         1 <0>         0.0000
   9282 WAT       -37.4320  -71.9160   -9.3330 O         1 <0>         0.0000
   9283 WAT       -37.4320  -71.9160   -9.0830 O         1 <0>         0.0000
   9284 WAT       -37.4320  -71.9160   -8.8330 O         1 <0>         0.0000
   9285 WAT       -37.4320  -71.9160   -8.5830 O         1 <0>         0.0000
   9286 WAT       -37.4320  -71.9160   -8.3330 O         1 <0>         0.0000
   9287 WAT       -37.4320  -71.9160   -8.0830 O         1 <0>         0.0000
   9288 WAT       -37.4320  -71.9160   -7.8330 O         1 <0>         0.0000
   9289 WAT       -37.4320  -71.9160   -7.5830 O         1 <0>         0.0000
   9290 WAT       -37.4320  -71.9160   -7.3330 O         1 <0>         0.0000
   9291 WAT       -37.4320  -71.9160   -7.0830 O         1 <0>         0.0000
   9292 WAT       -37.4320  -71.9160   -6.8330 O         1 <0>         0.0000
   9293 WAT       -37.4320  -71.9160   -6.5830 O         1 <0>         0.0000
   9294 WAT       -37.4320  -71.9160   -6.3330 O         1 <0>         0.0000
   9295 WAT       -37.4320  -71.9160   -6.0830 O         1 <0>         0.0000
   9296 WAT       -37.4320  -71.9160   -5.8330 O         1 <0>         0.0000
   9297 WAT       -37.4320  -71.9160   -5.5830 O         1 <0>         0.0000
   9298 WAT       -37.4320  -71.9160   -5.3330 O         1 <0>         0.0000
   9299 WAT       -37.4320  -71.9160   -5.0830 O         1 <0>         0.0000
   9300 WAT       -37.4320  -71.9160   -4.8330 O         1 <0>         0.0000
   9301 WAT       -37.4320  -71.9160   -4.5830 O         1 <0>         0.0000
   9302 WAT       -37.4320  -71.9160   -4.3330 O         1 <0>         0.0000
   9303 WAT       -37.4320  -71.9160   -4.0830 O         1 <0>         0.0000
   9304 WAT       -37.4320  -71.9160   -3.8330 O         1 <0>         0.0000
   9305 WAT       -37.4320  -71.9160   -3.5830 O         1 <0>         0.0000
   9306 WAT       -37.4320  -71.9160   -3.3330 O         1 <0>         0.0000
   9307 WAT       -37.4320  -71.9160   -3.0830 O         1 <0>         0.0000
   9308 WAT       -37.4320  -71.9160   -2.8330 O         1 <0>         0.0000
   9309 WAT       -37.4320  -71.9160   -2.5830 O         1 <0>         0.0000
   9310 WAT       -37.4320  -71.9160   -2.3330 O         1 <0>         0.0000
   9311 WAT       -37.4320  -71.9160   -2.0830 O         1 <0>         0.0000
   9312 WAT       -37.4320  -71.9160   -1.8330 O         1 <0>         0.0000
   9313 WAT       -37.4320  -71.9160   -1.5830 O         1 <0>         0.0000
   9314 WAT       -37.4320  -71.9160   -1.3330 O         1 <0>         0.0000
   9315 WAT       -37.4320  -71.9160   -1.0830 O         1 <0>         0.0000
   9316 WAT       -37.4320  -71.9160   -0.8330 O         1 <0>         0.0000
   9317 WAT       -37.4320  -71.9160   -0.5830 O         1 <0>         0.0000
   9318 WAT       -37.4320  -71.9160   -0.3330 O         1 <0>         0.0000
   9319 WAT       -37.4320  -71.9160   -0.0830 O         1 <0>         0.0000
   9320 WAT       -37.4320  -71.6660   -9.8330 O         1 <0>         0.0000
   9321 WAT       -37.4320  -71.6660   -9.5830 O         1 <0>         0.0000
   9322 WAT       -37.4320  -71.6660   -9.3330 O         1 <0>         0.0000
   9323 WAT       -37.4320  -71.6660   -9.0830 O         1 <0>         0.0000
   9324 WAT       -37.4320  -71.6660   -8.8330 O         1 <0>         0.0000
   9325 WAT       -37.4320  -71.6660   -8.5830 O         1 <0>         0.0000
   9326 WAT       -37.4320  -71.6660   -8.3330 O         1 <0>         0.0000
   9327 WAT       -37.4320  -71.6660   -8.0830 O         1 <0>         0.0000
   9328 WAT       -37.4320  -71.6660   -7.8330 O         1 <0>         0.0000
   9329 WAT       -37.4320  -71.6660   -7.5830 O         1 <0>         0.0000
   9330 WAT       -37.4320  -71.6660   -7.3330 O         1 <0>         0.0000
   9331 WAT       -37.4320  -71.6660   -7.0830 O         1 <0>         0.0000
   9332 WAT       -37.4320  -71.6660   -6.8330 O         1 <0>         0.0000
   9333 WAT       -37.4320  -71.6660   -6.5830 O         1 <0>         0.0000
   9334 WAT       -37.4320  -71.6660   -6.3330 O         1 <0>         0.0000
   9335 WAT       -37.4320  -71.6660   -6.0830 O         1 <0>         0.0000
   9336 WAT       -37.4320  -71.6660   -5.8330 O         1 <0>         0.0000
   9337 WAT       -37.4320  -71.6660   -5.5830 O         1 <0>         0.0000
   9338 WAT       -37.4320  -71.6660   -5.3330 O         1 <0>         0.0000
   9339 WAT       -37.4320  -71.6660   -5.0830 O         1 <0>         0.0000
   9340 WAT       -37.4320  -71.6660   -4.8330 O         1 <0>         0.0000
   9341 WAT       -37.4320  -71.6660   -4.5830 O         1 <0>         0.0000
   9342 WAT       -37.4320  -71.6660   -4.3330 O         1 <0>         0.0000
   9343 WAT       -37.4320  -71.6660   -4.0830 O         1 <0>         0.0000
   9344 WAT       -37.4320  -71.6660   -3.8330 O         1 <0>         0.0000
   9345 WAT       -37.4320  -71.6660   -3.5830 O         1 <0>         0.0000
   9346 WAT       -37.4320  -71.6660   -3.3330 O         1 <0>         0.0000
   9347 WAT       -37.4320  -71.6660   -3.0830 O         1 <0>         0.0000
   9348 WAT       -37.4320  -71.6660   -2.8330 O         1 <0>         0.0000
   9349 WAT       -37.4320  -71.6660   -2.5830 O         1 <0>         0.0000
   9350 WAT       -37.4320  -71.6660   -2.3330 O         1 <0>         0.0000
   9351 WAT       -37.4320  -71.6660   -2.0830 O         1 <0>         0.0000
   9352 WAT       -37.4320  -71.6660   -1.8330 O         1 <0>         0.0000
   9353 WAT       -37.4320  -71.6660   -1.5830 O         1 <0>         0.0000
   9354 WAT       -37.4320  -71.6660   -1.3330 O         1 <0>         0.0000
   9355 WAT       -37.4320  -71.6660   -1.0830 O         1 <0>         0.0000
   9356 WAT       -37.4320  -71.6660   -0.8330 O         1 <0>         0.0000
   9357 WAT       -37.4320  -71.6660   -0.5830 O         1 <0>         0.0000
   9358 WAT       -37.4320  -71.6660   -0.3330 O         1 <0>         0.0000
   9359 WAT       -37.4320  -71.6660   -0.0830 O         1 <0>         0.0000
   9360 WAT       -37.4320  -71.4160   -9.8330 O         1 <0>         0.0000
   9361 WAT       -37.4320  -71.4160   -9.5830 O         1 <0>         0.0000
   9362 WAT       -37.4320  -71.4160   -9.3330 O         1 <0>         0.0000
   9363 WAT       -37.4320  -71.4160   -9.0830 O         1 <0>         0.0000
   9364 WAT       -37.4320  -71.4160   -8.8330 O         1 <0>         0.0000
   9365 WAT       -37.4320  -71.4160   -8.5830 O         1 <0>         0.0000
   9366 WAT       -37.4320  -71.4160   -8.3330 O         1 <0>         0.0000
   9367 WAT       -37.4320  -71.4160   -8.0830 O         1 <0>         0.0000
   9368 WAT       -37.4320  -71.4160   -7.8330 O         1 <0>         0.0000
   9369 WAT       -37.4320  -71.4160   -7.5830 O         1 <0>         0.0000
   9370 WAT       -37.4320  -71.4160   -7.3330 O         1 <0>         0.0000
   9371 WAT       -37.4320  -71.4160   -7.0830 O         1 <0>         0.0000
   9372 WAT       -37.4320  -71.4160   -6.8330 O         1 <0>         0.0000
   9373 WAT       -37.4320  -71.4160   -6.5830 O         1 <0>         0.0000
   9374 WAT       -37.4320  -71.4160   -6.3330 O         1 <0>         0.0000
   9375 WAT       -37.4320  -71.4160   -6.0830 O         1 <0>         0.0000
   9376 WAT       -37.4320  -71.4160   -5.8330 O         1 <0>         0.0000
   9377 WAT       -37.4320  -71.4160   -5.5830 O         1 <0>         0.0000
   9378 WAT       -37.4320  -71.4160   -5.3330 O         1 <0>         0.0000
   9379 WAT       -37.4320  -71.4160   -5.0830 O         1 <0>         0.0000
   9380 WAT       -37.4320  -71.4160   -4.8330 O         1 <0>         0.0000
   9381 WAT       -37.4320  -71.4160   -4.5830 O         1 <0>         0.0000
   9382 WAT       -37.4320  -71.4160   -4.3330 O         1 <0>         0.0000
   9383 WAT       -37.4320  -71.4160   -4.0830 O         1 <0>         0.0000
   9384 WAT       -37.4320  -71.4160   -3.8330 O         1 <0>         0.0000
   9385 WAT       -37.4320  -71.4160   -3.5830 O         1 <0>         0.0000
   9386 WAT       -37.4320  -71.4160   -3.3330 O         1 <0>         0.0000
   9387 WAT       -37.4320  -71.4160   -3.0830 O         1 <0>         0.0000
   9388 WAT       -37.4320  -71.4160   -2.8330 O         1 <0>         0.0000
   9389 WAT       -37.4320  -71.4160   -2.5830 O         1 <0>         0.0000
   9390 WAT       -37.4320  -71.4160   -2.3330 O         1 <0>         0.0000
   9391 WAT       -37.4320  -71.4160   -2.0830 O         1 <0>         0.0000
   9392 WAT       -37.4320  -71.4160   -1.8330 O         1 <0>         0.0000
   9393 WAT       -37.4320  -71.4160   -1.5830 O         1 <0>         0.0000
   9394 WAT       -37.4320  -71.4160   -1.3330 O         1 <0>         0.0000
   9395 WAT       -37.4320  -71.4160   -1.0830 O         1 <0>         0.0000
   9396 WAT       -37.4320  -71.4160   -0.8330 O         1 <0>         0.0000
   9397 WAT       -37.4320  -71.4160   -0.5830 O         1 <0>         0.0000
   9398 WAT       -37.4320  -71.4160   -0.3330 O         1 <0>         0.0000
   9399 WAT       -37.4320  -71.4160   -0.0830 O         1 <0>         0.0000
   9400 WAT       -37.4320  -71.1660   -9.8330 O         1 <0>         0.0000
   9401 WAT       -37.4320  -71.1660   -9.5830 O         1 <0>         0.0000
   9402 WAT       -37.4320  -71.1660   -9.3330 O         1 <0>         0.0000
   9403 WAT       -37.4320  -71.1660   -9.0830 O         1 <0>         0.0000
   9404 WAT       -37.4320  -71.1660   -8.8330 O         1 <0>         0.0000
   9405 WAT       -37.4320  -71.1660   -8.5830 O         1 <0>         0.0000
   9406 WAT       -37.4320  -71.1660   -8.3330 O         1 <0>         0.0000
   9407 WAT       -37.4320  -71.1660   -8.0830 O         1 <0>         0.0000
   9408 WAT       -37.4320  -71.1660   -7.8330 O         1 <0>         0.0000
   9409 WAT       -37.4320  -71.1660   -7.5830 O         1 <0>         0.0000
   9410 WAT       -37.4320  -71.1660   -7.3330 O         1 <0>         0.0000
   9411 WAT       -37.4320  -71.1660   -7.0830 O         1 <0>         0.0000
   9412 WAT       -37.4320  -71.1660   -6.8330 O         1 <0>         0.0000
   9413 WAT       -37.4320  -71.1660   -6.5830 O         1 <0>         0.0000
   9414 WAT       -37.4320  -71.1660   -6.3330 O         1 <0>         0.0000
   9415 WAT       -37.4320  -71.1660   -6.0830 O         1 <0>         0.0000
   9416 WAT       -37.4320  -71.1660   -5.8330 O         1 <0>         0.0000
   9417 WAT       -37.4320  -71.1660   -5.5830 O         1 <0>         0.0000
   9418 WAT       -37.4320  -71.1660   -5.3330 O         1 <0>         0.0000
   9419 WAT       -37.4320  -71.1660   -5.0830 O         1 <0>         0.0000
   9420 WAT       -37.4320  -71.1660   -4.8330 O         1 <0>         0.0000
   9421 WAT       -37.4320  -71.1660   -4.5830 O         1 <0>         0.0000
   9422 WAT       -37.4320  -71.1660   -4.3330 O         1 <0>         0.0000
   9423 WAT       -37.4320  -71.1660   -4.0830 O         1 <0>         0.0000
   9424 WAT       -37.4320  -71.1660   -3.8330 O         1 <0>         0.0000
   9425 WAT       -37.4320  -71.1660   -3.5830 O         1 <0>         0.0000
   9426 WAT       -37.4320  -71.1660   -3.3330 O         1 <0>         0.0000
   9427 WAT       -37.4320  -71.1660   -3.0830 O         1 <0>         0.0000
   9428 WAT       -37.4320  -71.1660   -2.8330 O         1 <0>         0.0000
   9429 WAT       -37.4320  -71.1660   -2.5830 O         1 <0>         0.0000
   9430 WAT       -37.4320  -71.1660   -2.3330 O         1 <0>         0.0000
   9431 WAT       -37.4320  -71.1660   -2.0830 O         1 <0>         0.0000
   9432 WAT       -37.4320  -71.1660   -1.8330 O         1 <0>         0.0000
   9433 WAT       -37.4320  -71.1660   -1.5830 O         1 <0>         0.0000
   9434 WAT       -37.4320  -71.1660   -1.3330 O         1 <0>         0.0000
   9435 WAT       -37.4320  -71.1660   -1.0830 O         1 <0>         0.0000
   9436 WAT       -37.4320  -71.1660   -0.8330 O         1 <0>         0.0000
   9437 WAT       -37.4320  -71.1660   -0.5830 O         1 <0>         0.0000
   9438 WAT       -37.4320  -71.1660   -0.3330 O         1 <0>         0.0000
   9439 WAT       -37.4320  -71.1660   -0.0830 O         1 <0>         0.0000
   9440 WAT       -37.4320  -70.9160   -9.8330 O         1 <0>         0.0000
   9441 WAT       -37.4320  -70.9160   -9.5830 O         1 <0>         0.0000
   9442 WAT       -37.4320  -70.9160   -9.3330 O         1 <0>         0.0000
   9443 WAT       -37.4320  -70.9160   -9.0830 O         1 <0>         0.0000
   9444 WAT       -37.4320  -70.9160   -8.8330 O         1 <0>         0.0000
   9445 WAT       -37.4320  -70.9160   -8.5830 O         1 <0>         0.0000
   9446 WAT       -37.4320  -70.9160   -8.3330 O         1 <0>         0.0000
   9447 WAT       -37.4320  -70.9160   -8.0830 O         1 <0>         0.0000
   9448 WAT       -37.4320  -70.9160   -7.8330 O         1 <0>         0.0000
   9449 WAT       -37.4320  -70.9160   -7.5830 O         1 <0>         0.0000
   9450 WAT       -37.4320  -70.9160   -7.3330 O         1 <0>         0.0000
   9451 WAT       -37.4320  -70.9160   -7.0830 O         1 <0>         0.0000
   9452 WAT       -37.4320  -70.9160   -6.8330 O         1 <0>         0.0000
   9453 WAT       -37.4320  -70.9160   -6.5830 O         1 <0>         0.0000
   9454 WAT       -37.4320  -70.9160   -6.3330 O         1 <0>         0.0000
   9455 WAT       -37.4320  -70.9160   -6.0830 O         1 <0>         0.0000
   9456 WAT       -37.4320  -70.9160   -5.8330 O         1 <0>         0.0000
   9457 WAT       -37.4320  -70.9160   -5.5830 O         1 <0>         0.0000
   9458 WAT       -37.4320  -70.9160   -5.3330 O         1 <0>         0.0000
   9459 WAT       -37.4320  -70.9160   -5.0830 O         1 <0>         0.0000
   9460 WAT       -37.4320  -70.9160   -4.8330 O         1 <0>         0.0000
   9461 WAT       -37.4320  -70.9160   -4.5830 O         1 <0>         0.0000
   9462 WAT       -37.4320  -70.9160   -4.3330 O         1 <0>         0.0000
   9463 WAT       -37.4320  -70.9160   -4.0830 O         1 <0>         0.0000
   9464 WAT       -37.4320  -70.9160   -3.8330 O         1 <0>         0.0000
   9465 WAT       -37.4320  -70.9160   -3.5830 O         1 <0>         0.0000
   9466 WAT       -37.4320  -70.9160   -3.3330 O         1 <0>         0.0000
   9467 WAT       -37.4320  -70.9160   -3.0830 O         1 <0>         0.0000
   9468 WAT       -37.4320  -70.9160   -2.8330 O         1 <0>         0.0000
   9469 WAT       -37.4320  -70.9160   -2.5830 O         1 <0>         0.0000
   9470 WAT       -37.4320  -70.9160   -2.3330 O         1 <0>         0.0000
   9471 WAT       -37.4320  -70.9160   -2.0830 O         1 <0>         0.0000
   9472 WAT       -37.4320  -70.9160   -1.8330 O         1 <0>         0.0000
   9473 WAT       -37.4320  -70.9160   -1.5830 O         1 <0>         0.0000
   9474 WAT       -37.4320  -70.9160   -1.3330 O         1 <0>         0.0000
   9475 WAT       -37.4320  -70.9160   -1.0830 O         1 <0>         0.0000
   9476 WAT       -37.4320  -70.9160   -0.8330 O         1 <0>         0.0000
   9477 WAT       -37.4320  -70.9160   -0.5830 O         1 <0>         0.0000
   9478 WAT       -37.4320  -70.9160   -0.3330 O         1 <0>         0.0000
   9479 WAT       -37.4320  -70.9160   -0.0830 O         1 <0>         0.0000
   9480 WAT       -37.4320  -70.6660   -9.8330 O         1 <0>         0.0000
   9481 WAT       -37.4320  -70.6660   -9.5830 O         1 <0>         0.0000
   9482 WAT       -37.4320  -70.6660   -9.3330 O         1 <0>         0.0000
   9483 WAT       -37.4320  -70.6660   -9.0830 O         1 <0>         0.0000
   9484 WAT       -37.4320  -70.6660   -8.8330 O         1 <0>         0.0000
   9485 WAT       -37.4320  -70.6660   -8.5830 O         1 <0>         0.0000
   9486 WAT       -37.4320  -70.6660   -8.3330 O         1 <0>         0.0000
   9487 WAT       -37.4320  -70.6660   -8.0830 O         1 <0>         0.0000
   9488 WAT       -37.4320  -70.6660   -7.8330 O         1 <0>         0.0000
   9489 WAT       -37.4320  -70.6660   -7.5830 O         1 <0>         0.0000
   9490 WAT       -37.4320  -70.6660   -7.3330 O         1 <0>         0.0000
   9491 WAT       -37.4320  -70.6660   -7.0830 O         1 <0>         0.0000
   9492 WAT       -37.4320  -70.6660   -6.8330 O         1 <0>         0.0000
   9493 WAT       -37.4320  -70.6660   -6.5830 O         1 <0>         0.0000
   9494 WAT       -37.4320  -70.6660   -6.3330 O         1 <0>         0.0000
   9495 WAT       -37.4320  -70.6660   -6.0830 O         1 <0>         0.0000
   9496 WAT       -37.4320  -70.6660   -5.8330 O         1 <0>         0.0000
   9497 WAT       -37.4320  -70.6660   -5.5830 O         1 <0>         0.0000
   9498 WAT       -37.4320  -70.6660   -5.3330 O         1 <0>         0.0000
   9499 WAT       -37.4320  -70.6660   -5.0830 O         1 <0>         0.0000
   9500 WAT       -37.4320  -70.6660   -4.8330 O         1 <0>         0.0000
   9501 WAT       -37.4320  -70.6660   -4.5830 O         1 <0>         0.0000
   9502 WAT       -37.4320  -70.6660   -4.3330 O         1 <0>         0.0000
   9503 WAT       -37.4320  -70.6660   -4.0830 O         1 <0>         0.0000
   9504 WAT       -37.4320  -70.6660   -3.8330 O         1 <0>         0.0000
   9505 WAT       -37.4320  -70.6660   -3.5830 O         1 <0>         0.0000
   9506 WAT       -37.4320  -70.6660   -3.3330 O         1 <0>         0.0000
   9507 WAT       -37.4320  -70.6660   -3.0830 O         1 <0>         0.0000
   9508 WAT       -37.4320  -70.6660   -2.8330 O         1 <0>         0.0000
   9509 WAT       -37.4320  -70.6660   -2.5830 O         1 <0>         0.0000
   9510 WAT       -37.4320  -70.6660   -2.3330 O         1 <0>         0.0000
   9511 WAT       -37.4320  -70.6660   -2.0830 O         1 <0>         0.0000
   9512 WAT       -37.4320  -70.6660   -1.8330 O         1 <0>         0.0000
   9513 WAT       -37.4320  -70.6660   -1.5830 O         1 <0>         0.0000
   9514 WAT       -37.4320  -70.6660   -1.3330 O         1 <0>         0.0000
   9515 WAT       -37.4320  -70.6660   -1.0830 O         1 <0>         0.0000
   9516 WAT       -37.4320  -70.6660   -0.8330 O         1 <0>         0.0000
   9517 WAT       -37.4320  -70.6660   -0.5830 O         1 <0>         0.0000
   9518 WAT       -37.4320  -70.6660   -0.3330 O         1 <0>         0.0000
   9519 WAT       -37.4320  -70.6660   -0.0830 O         1 <0>         0.0000
   9520 WAT       -37.4320  -70.4160   -9.8330 O         1 <0>         0.0000
   9521 WAT       -37.4320  -70.4160   -9.5830 O         1 <0>         0.0000
   9522 WAT       -37.4320  -70.4160   -9.3330 O         1 <0>         0.0000
   9523 WAT       -37.4320  -70.4160   -9.0830 O         1 <0>         0.0000
   9524 WAT       -37.4320  -70.4160   -8.8330 O         1 <0>         0.0000
   9525 WAT       -37.4320  -70.4160   -8.5830 O         1 <0>         0.0000
   9526 WAT       -37.4320  -70.4160   -8.3330 O         1 <0>         0.0000
   9527 WAT       -37.4320  -70.4160   -8.0830 O         1 <0>         0.0000
   9528 WAT       -37.4320  -70.4160   -7.8330 O         1 <0>         0.0000
   9529 WAT       -37.4320  -70.4160   -7.5830 O         1 <0>         0.0000
   9530 WAT       -37.4320  -70.4160   -7.3330 O         1 <0>         0.0000
   9531 WAT       -37.4320  -70.4160   -7.0830 O         1 <0>         0.0000
   9532 WAT       -37.4320  -70.4160   -6.8330 O         1 <0>         0.0000
   9533 WAT       -37.4320  -70.4160   -6.5830 O         1 <0>         0.0000
   9534 WAT       -37.4320  -70.4160   -6.3330 O         1 <0>         0.0000
   9535 WAT       -37.4320  -70.4160   -6.0830 O         1 <0>         0.0000
   9536 WAT       -37.4320  -70.4160   -5.8330 O         1 <0>         0.0000
   9537 WAT       -37.4320  -70.4160   -5.5830 O         1 <0>         0.0000
   9538 WAT       -37.4320  -70.4160   -5.3330 O         1 <0>         0.0000
   9539 WAT       -37.4320  -70.4160   -5.0830 O         1 <0>         0.0000
   9540 WAT       -37.4320  -70.4160   -4.8330 O         1 <0>         0.0000
   9541 WAT       -37.4320  -70.4160   -4.5830 O         1 <0>         0.0000
   9542 WAT       -37.4320  -70.4160   -4.3330 O         1 <0>         0.0000
   9543 WAT       -37.4320  -70.4160   -4.0830 O         1 <0>         0.0000
   9544 WAT       -37.4320  -70.4160   -3.8330 O         1 <0>         0.0000
   9545 WAT       -37.4320  -70.4160   -3.5830 O         1 <0>         0.0000
   9546 WAT       -37.4320  -70.4160   -3.3330 O         1 <0>         0.0000
   9547 WAT       -37.4320  -70.4160   -3.0830 O         1 <0>         0.0000
   9548 WAT       -37.4320  -70.4160   -2.8330 O         1 <0>         0.0000
   9549 WAT       -37.4320  -70.4160   -2.5830 O         1 <0>         0.0000
   9550 WAT       -37.4320  -70.4160   -2.3330 O         1 <0>         0.0000
   9551 WAT       -37.4320  -70.4160   -2.0830 O         1 <0>         0.0000
   9552 WAT       -37.4320  -70.4160   -1.8330 O         1 <0>         0.0000
   9553 WAT       -37.4320  -70.4160   -1.5830 O         1 <0>         0.0000
   9554 WAT       -37.4320  -70.4160   -1.3330 O         1 <0>         0.0000
   9555 WAT       -37.4320  -70.4160   -1.0830 O         1 <0>         0.0000
   9556 WAT       -37.4320  -70.4160   -0.8330 O         1 <0>         0.0000
   9557 WAT       -37.4320  -70.4160   -0.5830 O         1 <0>         0.0000
   9558 WAT       -37.4320  -70.4160   -0.3330 O         1 <0>         0.0000
   9559 WAT       -37.4320  -70.4160   -0.0830 O         1 <0>         0.0000
   9560 WAT       -37.4320  -70.1660   -9.8330 O         1 <0>         0.0000
   9561 WAT       -37.4320  -70.1660   -9.5830 O         1 <0>         0.0000
   9562 WAT       -37.4320  -70.1660   -9.3330 O         1 <0>         0.0000
   9563 WAT       -37.4320  -70.1660   -9.0830 O         1 <0>         0.0000
   9564 WAT       -37.4320  -70.1660   -8.8330 O         1 <0>         0.0000
   9565 WAT       -37.4320  -70.1660   -8.5830 O         1 <0>         0.0000
   9566 WAT       -37.4320  -70.1660   -8.3330 O         1 <0>         0.0000
   9567 WAT       -37.4320  -70.1660   -8.0830 O         1 <0>         0.0000
   9568 WAT       -37.4320  -70.1660   -7.8330 O         1 <0>         0.0000
   9569 WAT       -37.4320  -70.1660   -7.5830 O         1 <0>         0.0000
   9570 WAT       -37.4320  -70.1660   -7.3330 O         1 <0>         0.0000
   9571 WAT       -37.4320  -70.1660   -7.0830 O         1 <0>         0.0000
   9572 WAT       -37.4320  -70.1660   -6.8330 O         1 <0>         0.0000
   9573 WAT       -37.4320  -70.1660   -6.5830 O         1 <0>         0.0000
   9574 WAT       -37.4320  -70.1660   -6.3330 O         1 <0>         0.0000
   9575 WAT       -37.4320  -70.1660   -6.0830 O         1 <0>         0.0000
   9576 WAT       -37.4320  -70.1660   -5.8330 O         1 <0>         0.0000
   9577 WAT       -37.4320  -70.1660   -5.5830 O         1 <0>         0.0000
   9578 WAT       -37.4320  -70.1660   -5.3330 O         1 <0>         0.0000
   9579 WAT       -37.4320  -70.1660   -5.0830 O         1 <0>         0.0000
   9580 WAT       -37.4320  -70.1660   -4.8330 O         1 <0>         0.0000
   9581 WAT       -37.4320  -70.1660   -4.5830 O         1 <0>         0.0000
   9582 WAT       -37.4320  -70.1660   -4.3330 O         1 <0>         0.0000
   9583 WAT       -37.4320  -70.1660   -4.0830 O         1 <0>         0.0000
   9584 WAT       -37.4320  -70.1660   -3.8330 O         1 <0>         0.0000
   9585 WAT       -37.4320  -70.1660   -3.5830 O         1 <0>         0.0000
   9586 WAT       -37.4320  -70.1660   -3.3330 O         1 <0>         0.0000
   9587 WAT       -37.4320  -70.1660   -3.0830 O         1 <0>         0.0000
   9588 WAT       -37.4320  -70.1660   -2.8330 O         1 <0>         0.0000
   9589 WAT       -37.4320  -70.1660   -2.5830 O         1 <0>         0.0000
   9590 WAT       -37.4320  -70.1660   -2.3330 O         1 <0>         0.0000
   9591 WAT       -37.4320  -70.1660   -2.0830 O         1 <0>         0.0000
   9592 WAT       -37.4320  -70.1660   -1.8330 O         1 <0>         0.0000
   9593 WAT       -37.4320  -70.1660   -1.5830 O         1 <0>         0.0000
   9594 WAT       -37.4320  -70.1660   -1.3330 O         1 <0>         0.0000
   9595 WAT       -37.4320  -70.1660   -1.0830 O         1 <0>         0.0000
   9596 WAT       -37.4320  -70.1660   -0.8330 O         1 <0>         0.0000
   9597 WAT       -37.4320  -70.1660   -0.5830 O         1 <0>         0.0000
   9598 WAT       -37.4320  -70.1660   -0.3330 O         1 <0>         0.0000
   9599 WAT       -37.4320  -70.1660   -0.0830 O         1 <0>         0.0000
   9600 WAT       -37.4320  -69.9160   -9.8330 O         1 <0>         0.0000
   9601 WAT       -37.4320  -69.9160   -9.5830 O         1 <0>         0.0000
   9602 WAT       -37.4320  -69.9160   -9.3330 O         1 <0>         0.0000
   9603 WAT       -37.4320  -69.9160   -9.0830 O         1 <0>         0.0000
   9604 WAT       -37.4320  -69.9160   -8.8330 O         1 <0>         0.0000
   9605 WAT       -37.4320  -69.9160   -8.5830 O         1 <0>         0.0000
   9606 WAT       -37.4320  -69.9160   -8.3330 O         1 <0>         0.0000
   9607 WAT       -37.4320  -69.9160   -8.0830 O         1 <0>         0.0000
   9608 WAT       -37.4320  -69.9160   -7.8330 O         1 <0>         0.0000
   9609 WAT       -37.4320  -69.9160   -7.5830 O         1 <0>         0.0000
   9610 WAT       -37.4320  -69.9160   -7.3330 O         1 <0>         0.0000
   9611 WAT       -37.4320  -69.9160   -7.0830 O         1 <0>         0.0000
   9612 WAT       -37.4320  -69.9160   -6.8330 O         1 <0>         0.0000
   9613 WAT       -37.4320  -69.9160   -6.5830 O         1 <0>         0.0000
   9614 WAT       -37.4320  -69.9160   -6.3330 O         1 <0>         0.0000
   9615 WAT       -37.4320  -69.9160   -6.0830 O         1 <0>         0.0000
   9616 WAT       -37.4320  -69.9160   -5.8330 O         1 <0>         0.0000
   9617 WAT       -37.4320  -69.9160   -5.5830 O         1 <0>         0.0000
   9618 WAT       -37.4320  -69.9160   -5.3330 O         1 <0>         0.0000
   9619 WAT       -37.4320  -69.9160   -5.0830 O         1 <0>         0.0000
   9620 WAT       -37.4320  -69.9160   -4.8330 O         1 <0>         0.0000
   9621 WAT       -37.4320  -69.9160   -4.5830 O         1 <0>         0.0000
   9622 WAT       -37.4320  -69.9160   -4.3330 O         1 <0>         0.0000
   9623 WAT       -37.4320  -69.9160   -4.0830 O         1 <0>         0.0000
   9624 WAT       -37.4320  -69.9160   -3.8330 O         1 <0>         0.0000
   9625 WAT       -37.4320  -69.9160   -3.5830 O         1 <0>         0.0000
   9626 WAT       -37.4320  -69.9160   -3.3330 O         1 <0>         0.0000
   9627 WAT       -37.4320  -69.9160   -3.0830 O         1 <0>         0.0000
   9628 WAT       -37.4320  -69.9160   -2.8330 O         1 <0>         0.0000
   9629 WAT       -37.4320  -69.9160   -2.5830 O         1 <0>         0.0000
   9630 WAT       -37.4320  -69.9160   -2.3330 O         1 <0>         0.0000
   9631 WAT       -37.4320  -69.9160   -2.0830 O         1 <0>         0.0000
   9632 WAT       -37.4320  -69.9160   -1.8330 O         1 <0>         0.0000
   9633 WAT       -37.4320  -69.9160   -1.5830 O         1 <0>         0.0000
   9634 WAT       -37.4320  -69.9160   -1.3330 O         1 <0>         0.0000
   9635 WAT       -37.4320  -69.9160   -1.0830 O         1 <0>         0.0000
   9636 WAT       -37.4320  -69.9160   -0.8330 O         1 <0>         0.0000
   9637 WAT       -37.4320  -69.9160   -0.5830 O         1 <0>         0.0000
   9638 WAT       -37.4320  -69.9160   -0.3330 O         1 <0>         0.0000
   9639 WAT       -37.4320  -69.9160   -0.0830 O         1 <0>         0.0000
   9640 WAT       -37.4320  -69.6660   -9.8330 O         1 <0>         0.0000
   9641 WAT       -37.4320  -69.6660   -9.5830 O         1 <0>         0.0000
   9642 WAT       -37.4320  -69.6660   -9.3330 O         1 <0>         0.0000
   9643 WAT       -37.4320  -69.6660   -9.0830 O         1 <0>         0.0000
   9644 WAT       -37.4320  -69.6660   -8.8330 O         1 <0>         0.0000
   9645 WAT       -37.4320  -69.6660   -8.5830 O         1 <0>         0.0000
   9646 WAT       -37.4320  -69.6660   -8.3330 O         1 <0>         0.0000
   9647 WAT       -37.4320  -69.6660   -8.0830 O         1 <0>         0.0000
   9648 WAT       -37.4320  -69.6660   -7.8330 O         1 <0>         0.0000
   9649 WAT       -37.4320  -69.6660   -7.5830 O         1 <0>         0.0000
   9650 WAT       -37.4320  -69.6660   -7.3330 O         1 <0>         0.0000
   9651 WAT       -37.4320  -69.6660   -7.0830 O         1 <0>         0.0000
   9652 WAT       -37.4320  -69.6660   -6.8330 O         1 <0>         0.0000
   9653 WAT       -37.4320  -69.6660   -6.5830 O         1 <0>         0.0000
   9654 WAT       -37.4320  -69.6660   -6.3330 O         1 <0>         0.0000
   9655 WAT       -37.4320  -69.6660   -6.0830 O         1 <0>         0.0000
   9656 WAT       -37.4320  -69.6660   -5.8330 O         1 <0>         0.0000
   9657 WAT       -37.4320  -69.6660   -5.5830 O         1 <0>         0.0000
   9658 WAT       -37.4320  -69.6660   -5.3330 O         1 <0>         0.0000
   9659 WAT       -37.4320  -69.6660   -5.0830 O         1 <0>         0.0000
   9660 WAT       -37.4320  -69.6660   -4.8330 O         1 <0>         0.0000
   9661 WAT       -37.4320  -69.6660   -4.5830 O         1 <0>         0.0000
   9662 WAT       -37.4320  -69.6660   -4.3330 O         1 <0>         0.0000
   9663 WAT       -37.4320  -69.6660   -4.0830 O         1 <0>         0.0000
   9664 WAT       -37.4320  -69.6660   -3.8330 O         1 <0>         0.0000
   9665 WAT       -37.4320  -69.6660   -3.5830 O         1 <0>         0.0000
   9666 WAT       -37.4320  -69.6660   -3.3330 O         1 <0>         0.0000
   9667 WAT       -37.4320  -69.6660   -3.0830 O         1 <0>         0.0000
   9668 WAT       -37.4320  -69.6660   -2.8330 O         1 <0>         0.0000
   9669 WAT       -37.4320  -69.6660   -2.5830 O         1 <0>         0.0000
   9670 WAT       -37.4320  -69.6660   -2.3330 O         1 <0>         0.0000
   9671 WAT       -37.4320  -69.6660   -2.0830 O         1 <0>         0.0000
   9672 WAT       -37.4320  -69.6660   -1.8330 O         1 <0>         0.0000
   9673 WAT       -37.4320  -69.6660   -1.5830 O         1 <0>         0.0000
   9674 WAT       -37.4320  -69.6660   -1.3330 O         1 <0>         0.0000
   9675 WAT       -37.4320  -69.6660   -1.0830 O         1 <0>         0.0000
   9676 WAT       -37.4320  -69.6660   -0.8330 O         1 <0>         0.0000
   9677 WAT       -37.4320  -69.6660   -0.5830 O         1 <0>         0.0000
   9678 WAT       -37.4320  -69.6660   -0.3330 O         1 <0>         0.0000
   9679 WAT       -37.4320  -69.6660   -0.0830 O         1 <0>         0.0000
   9680 WAT       -37.4320  -69.4160   -9.8330 O         1 <0>         0.0000
   9681 WAT       -37.4320  -69.4160   -9.5830 O         1 <0>         0.0000
   9682 WAT       -37.4320  -69.4160   -9.3330 O         1 <0>         0.0000
   9683 WAT       -37.4320  -69.4160   -9.0830 O         1 <0>         0.0000
   9684 WAT       -37.4320  -69.4160   -8.8330 O         1 <0>         0.0000
   9685 WAT       -37.4320  -69.4160   -8.5830 O         1 <0>         0.0000
   9686 WAT       -37.4320  -69.4160   -8.3330 O         1 <0>         0.0000
   9687 WAT       -37.4320  -69.4160   -8.0830 O         1 <0>         0.0000
   9688 WAT       -37.4320  -69.4160   -7.8330 O         1 <0>         0.0000
   9689 WAT       -37.4320  -69.4160   -7.5830 O         1 <0>         0.0000
   9690 WAT       -37.4320  -69.4160   -7.3330 O         1 <0>         0.0000
   9691 WAT       -37.4320  -69.4160   -7.0830 O         1 <0>         0.0000
   9692 WAT       -37.4320  -69.4160   -6.8330 O         1 <0>         0.0000
   9693 WAT       -37.4320  -69.4160   -6.5830 O         1 <0>         0.0000
   9694 WAT       -37.4320  -69.4160   -6.3330 O         1 <0>         0.0000
   9695 WAT       -37.4320  -69.4160   -6.0830 O         1 <0>         0.0000
   9696 WAT       -37.4320  -69.4160   -5.8330 O         1 <0>         0.0000
   9697 WAT       -37.4320  -69.4160   -5.5830 O         1 <0>         0.0000
   9698 WAT       -37.4320  -69.4160   -5.3330 O         1 <0>         0.0000
   9699 WAT       -37.4320  -69.4160   -5.0830 O         1 <0>         0.0000
   9700 WAT       -37.4320  -69.4160   -4.8330 O         1 <0>         0.0000
   9701 WAT       -37.4320  -69.4160   -4.5830 O         1 <0>         0.0000
   9702 WAT       -37.4320  -69.4160   -4.3330 O         1 <0>         0.0000
   9703 WAT       -37.4320  -69.4160   -4.0830 O         1 <0>         0.0000
   9704 WAT       -37.4320  -69.4160   -3.8330 O         1 <0>         0.0000
   9705 WAT       -37.4320  -69.4160   -3.5830 O         1 <0>         0.0000
   9706 WAT       -37.4320  -69.4160   -3.3330 O         1 <0>         0.0000
   9707 WAT       -37.4320  -69.4160   -3.0830 O         1 <0>         0.0000
   9708 WAT       -37.4320  -69.4160   -2.8330 O         1 <0>         0.0000
   9709 WAT       -37.4320  -69.4160   -2.5830 O         1 <0>         0.0000
   9710 WAT       -37.4320  -69.4160   -2.3330 O         1 <0>         0.0000
   9711 WAT       -37.4320  -69.4160   -2.0830 O         1 <0>         0.0000
   9712 WAT       -37.4320  -69.4160   -1.8330 O         1 <0>         0.0000
   9713 WAT       -37.4320  -69.4160   -1.5830 O         1 <0>         0.0000
   9714 WAT       -37.4320  -69.4160   -1.3330 O         1 <0>         0.0000
   9715 WAT       -37.4320  -69.4160   -1.0830 O         1 <0>         0.0000
   9716 WAT       -37.4320  -69.4160   -0.8330 O         1 <0>         0.0000
   9717 WAT       -37.4320  -69.4160   -0.5830 O         1 <0>         0.0000
   9718 WAT       -37.4320  -69.4160   -0.3330 O         1 <0>         0.0000
   9719 WAT       -37.4320  -69.4160   -0.0830 O         1 <0>         0.0000
   9720 WAT       -37.4320  -69.1660   -9.8330 O         1 <0>         0.0000
   9721 WAT       -37.4320  -69.1660   -9.5830 O         1 <0>         0.0000
   9722 WAT       -37.4320  -69.1660   -9.3330 O         1 <0>         0.0000
   9723 WAT       -37.4320  -69.1660   -9.0830 O         1 <0>         0.0000
   9724 WAT       -37.4320  -69.1660   -8.8330 O         1 <0>         0.0000
   9725 WAT       -37.4320  -69.1660   -8.5830 O         1 <0>         0.0000
   9726 WAT       -37.4320  -69.1660   -8.3330 O         1 <0>         0.0000
   9727 WAT       -37.4320  -69.1660   -8.0830 O         1 <0>         0.0000
   9728 WAT       -37.4320  -69.1660   -7.8330 O         1 <0>         0.0000
   9729 WAT       -37.4320  -69.1660   -7.5830 O         1 <0>         0.0000
   9730 WAT       -37.4320  -69.1660   -7.3330 O         1 <0>         0.0000
   9731 WAT       -37.4320  -69.1660   -7.0830 O         1 <0>         0.0000
   9732 WAT       -37.4320  -69.1660   -6.8330 O         1 <0>         0.0000
   9733 WAT       -37.4320  -69.1660   -6.5830 O         1 <0>         0.0000
   9734 WAT       -37.4320  -69.1660   -6.3330 O         1 <0>         0.0000
   9735 WAT       -37.4320  -69.1660   -6.0830 O         1 <0>         0.0000
   9736 WAT       -37.4320  -69.1660   -5.8330 O         1 <0>         0.0000
   9737 WAT       -37.4320  -69.1660   -5.5830 O         1 <0>         0.0000
   9738 WAT       -37.4320  -69.1660   -5.3330 O         1 <0>         0.0000
   9739 WAT       -37.4320  -69.1660   -5.0830 O         1 <0>         0.0000
   9740 WAT       -37.4320  -69.1660   -4.8330 O         1 <0>         0.0000
   9741 WAT       -37.4320  -69.1660   -4.5830 O         1 <0>         0.0000
   9742 WAT       -37.4320  -69.1660   -4.3330 O         1 <0>         0.0000
   9743 WAT       -37.4320  -69.1660   -4.0830 O         1 <0>         0.0000
   9744 WAT       -37.4320  -69.1660   -3.8330 O         1 <0>         0.0000
   9745 WAT       -37.4320  -69.1660   -3.5830 O         1 <0>         0.0000
   9746 WAT       -37.4320  -69.1660   -3.3330 O         1 <0>         0.0000
   9747 WAT       -37.4320  -69.1660   -3.0830 O         1 <0>         0.0000
   9748 WAT       -37.4320  -69.1660   -2.8330 O         1 <0>         0.0000
   9749 WAT       -37.4320  -69.1660   -2.5830 O         1 <0>         0.0000
   9750 WAT       -37.4320  -69.1660   -2.3330 O         1 <0>         0.0000
   9751 WAT       -37.4320  -69.1660   -2.0830 O         1 <0>         0.0000
   9752 WAT       -37.4320  -69.1660   -1.8330 O         1 <0>         0.0000
   9753 WAT       -37.4320  -69.1660   -1.5830 O         1 <0>         0.0000
   9754 WAT       -37.4320  -69.1660   -1.3330 O         1 <0>         0.0000
   9755 WAT       -37.4320  -69.1660   -1.0830 O         1 <0>         0.0000
   9756 WAT       -37.4320  -69.1660   -0.8330 O         1 <0>         0.0000
   9757 WAT       -37.4320  -69.1660   -0.5830 O         1 <0>         0.0000
   9758 WAT       -37.4320  -69.1660   -0.3330 O         1 <0>         0.0000
   9759 WAT       -37.4320  -69.1660   -0.0830 O         1 <0>         0.0000
   9760 WAT       -37.4320  -68.9160   -9.8330 O         1 <0>         0.0000
   9761 WAT       -37.4320  -68.9160   -9.5830 O         1 <0>         0.0000
   9762 WAT       -37.4320  -68.9160   -9.3330 O         1 <0>         0.0000
   9763 WAT       -37.4320  -68.9160   -9.0830 O         1 <0>         0.0000
   9764 WAT       -37.4320  -68.9160   -8.8330 O         1 <0>         0.0000
   9765 WAT       -37.4320  -68.9160   -8.5830 O         1 <0>         0.0000
   9766 WAT       -37.4320  -68.9160   -8.3330 O         1 <0>         0.0000
   9767 WAT       -37.4320  -68.9160   -8.0830 O         1 <0>         0.0000
   9768 WAT       -37.4320  -68.9160   -7.8330 O         1 <0>         0.0000
   9769 WAT       -37.4320  -68.9160   -7.5830 O         1 <0>         0.0000
   9770 WAT       -37.4320  -68.9160   -7.3330 O         1 <0>         0.0000
   9771 WAT       -37.4320  -68.9160   -7.0830 O         1 <0>         0.0000
   9772 WAT       -37.4320  -68.9160   -6.8330 O         1 <0>         0.0000
   9773 WAT       -37.4320  -68.9160   -6.5830 O         1 <0>         0.0000
   9774 WAT       -37.4320  -68.9160   -6.3330 O         1 <0>         0.0000
   9775 WAT       -37.4320  -68.9160   -6.0830 O         1 <0>         0.0000
   9776 WAT       -37.4320  -68.9160   -5.8330 O         1 <0>         0.0000
   9777 WAT       -37.4320  -68.9160   -5.5830 O         1 <0>         0.0000
   9778 WAT       -37.4320  -68.9160   -5.3330 O         1 <0>         0.0000
   9779 WAT       -37.4320  -68.9160   -5.0830 O         1 <0>         0.0000
   9780 WAT       -37.4320  -68.9160   -4.8330 O         1 <0>         0.0000
   9781 WAT       -37.4320  -68.9160   -4.5830 O         1 <0>         0.0000
   9782 WAT       -37.4320  -68.9160   -4.3330 O         1 <0>         0.0000
   9783 WAT       -37.4320  -68.9160   -4.0830 O         1 <0>         0.0000
   9784 WAT       -37.4320  -68.9160   -3.8330 O         1 <0>         0.0000
   9785 WAT       -37.4320  -68.9160   -3.5830 O         1 <0>         0.0000
   9786 WAT       -37.4320  -68.9160   -3.3330 O         1 <0>         0.0000
   9787 WAT       -37.4320  -68.9160   -3.0830 O         1 <0>         0.0000
   9788 WAT       -37.4320  -68.9160   -2.8330 O         1 <0>         0.0000
   9789 WAT       -37.4320  -68.9160   -2.5830 O         1 <0>         0.0000
   9790 WAT       -37.4320  -68.9160   -2.3330 O         1 <0>         0.0000
   9791 WAT       -37.4320  -68.9160   -2.0830 O         1 <0>         0.0000
   9792 WAT       -37.4320  -68.9160   -1.8330 O         1 <0>         0.0000
   9793 WAT       -37.4320  -68.9160   -1.5830 O         1 <0>         0.0000
   9794 WAT       -37.4320  -68.9160   -1.3330 O         1 <0>         0.0000
   9795 WAT       -37.4320  -68.9160   -1.0830 O         1 <0>         0.0000
   9796 WAT       -37.4320  -68.9160   -0.8330 O         1 <0>         0.0000
   9797 WAT       -37.4320  -68.9160   -0.5830 O         1 <0>         0.0000
   9798 WAT       -37.4320  -68.9160   -0.3330 O         1 <0>         0.0000
   9799 WAT       -37.4320  -68.9160   -0.0830 O         1 <0>         0.0000
   9800 WAT       -37.1820  -77.4160   -9.8330 O         1 <0>         0.0000
   9801 WAT       -37.1820  -77.4160   -9.5830 O         1 <0>         0.0000
   9802 WAT       -37.1820  -77.4160   -9.3330 O         1 <0>         0.0000
   9803 WAT       -37.1820  -77.4160   -9.0830 O         1 <0>         0.0000
   9804 WAT       -37.1820  -77.4160   -8.8330 O         1 <0>         0.0000
   9805 WAT       -37.1820  -77.4160   -8.5830 O         1 <0>         0.0000
   9806 WAT       -37.1820  -77.4160   -8.3330 O         1 <0>         0.0000
   9807 WAT       -37.1820  -77.4160   -8.0830 O         1 <0>         0.0000
   9808 WAT       -37.1820  -77.4160   -7.8330 O         1 <0>         0.0000
   9809 WAT       -37.1820  -77.4160   -7.5830 O         1 <0>         0.0000
   9810 WAT       -37.1820  -77.4160   -7.3330 O         1 <0>         0.0000
   9811 WAT       -37.1820  -77.4160   -7.0830 O         1 <0>         0.0000
   9812 WAT       -37.1820  -77.4160   -6.8330 O         1 <0>         0.0000
   9813 WAT       -37.1820  -77.4160   -6.5830 O         1 <0>         0.0000
   9814 WAT       -37.1820  -77.4160   -6.3330 O         1 <0>         0.0000
   9815 WAT       -37.1820  -77.4160   -6.0830 O         1 <0>         0.0000
   9816 WAT       -37.1820  -77.4160   -5.8330 O         1 <0>         0.0000
   9817 WAT       -37.1820  -77.4160   -5.5830 O         1 <0>         0.0000
   9818 WAT       -37.1820  -77.4160   -5.3330 O         1 <0>         0.0000
   9819 WAT       -37.1820  -77.4160   -5.0830 O         1 <0>         0.0000
   9820 WAT       -37.1820  -77.4160   -4.8330 O         1 <0>         0.0000
   9821 WAT       -37.1820  -77.4160   -4.5830 O         1 <0>         0.0000
   9822 WAT       -37.1820  -77.4160   -4.3330 O         1 <0>         0.0000
   9823 WAT       -37.1820  -77.4160   -4.0830 O         1 <0>         0.0000
   9824 WAT       -37.1820  -77.4160   -3.8330 O         1 <0>         0.0000
   9825 WAT       -37.1820  -77.4160   -3.5830 O         1 <0>         0.0000
   9826 WAT       -37.1820  -77.4160   -3.3330 O         1 <0>         0.0000
   9827 WAT       -37.1820  -77.4160   -3.0830 O         1 <0>         0.0000
   9828 WAT       -37.1820  -77.4160   -2.8330 O         1 <0>         0.0000
   9829 WAT       -37.1820  -77.4160   -2.5830 O         1 <0>         0.0000
   9830 WAT       -37.1820  -77.4160   -2.3330 O         1 <0>         0.0000
   9831 WAT       -37.1820  -77.4160   -2.0830 O         1 <0>         0.0000
   9832 WAT       -37.1820  -77.4160   -1.8330 O         1 <0>         0.0000
   9833 WAT       -37.1820  -77.4160   -1.5830 O         1 <0>         0.0000
   9834 WAT       -37.1820  -77.4160   -1.3330 O         1 <0>         0.0000
   9835 WAT       -37.1820  -77.4160   -1.0830 O         1 <0>         0.0000
   9836 WAT       -37.1820  -77.4160   -0.8330 O         1 <0>         0.0000
   9837 WAT       -37.1820  -77.4160   -0.5830 O         1 <0>         0.0000
   9838 WAT       -37.1820  -77.4160   -0.3330 O         1 <0>         0.0000
   9839 WAT       -37.1820  -77.4160   -0.0830 O         1 <0>         0.0000
   9840 WAT       -37.1820  -77.1660   -9.8330 O         1 <0>         0.0000
   9841 WAT       -37.1820  -77.1660   -9.5830 O         1 <0>         0.0000
   9842 WAT       -37.1820  -77.1660   -9.3330 O         1 <0>         0.0000
   9843 WAT       -37.1820  -77.1660   -9.0830 O         1 <0>         0.0000
   9844 WAT       -37.1820  -77.1660   -8.8330 O         1 <0>         0.0000
   9845 WAT       -37.1820  -77.1660   -8.5830 O         1 <0>         0.0000
   9846 WAT       -37.1820  -77.1660   -8.3330 O         1 <0>         0.0000
   9847 WAT       -37.1820  -77.1660   -8.0830 O         1 <0>         0.0000
   9848 WAT       -37.1820  -77.1660   -7.8330 O         1 <0>         0.0000
   9849 WAT       -37.1820  -77.1660   -7.5830 O         1 <0>         0.0000
   9850 WAT       -37.1820  -77.1660   -7.3330 O         1 <0>         0.0000
   9851 WAT       -37.1820  -77.1660   -7.0830 O         1 <0>         0.0000
   9852 WAT       -37.1820  -77.1660   -6.8330 O         1 <0>         0.0000
   9853 WAT       -37.1820  -77.1660   -6.5830 O         1 <0>         0.0000
   9854 WAT       -37.1820  -77.1660   -6.3330 O         1 <0>         0.0000
   9855 WAT       -37.1820  -77.1660   -6.0830 O         1 <0>         0.0000
   9856 WAT       -37.1820  -77.1660   -5.8330 O         1 <0>         0.0000
   9857 WAT       -37.1820  -77.1660   -5.5830 O         1 <0>         0.0000
   9858 WAT       -37.1820  -77.1660   -5.3330 O         1 <0>         0.0000
   9859 WAT       -37.1820  -77.1660   -5.0830 O         1 <0>         0.0000
   9860 WAT       -37.1820  -77.1660   -4.8330 O         1 <0>         0.0000
   9861 WAT       -37.1820  -77.1660   -4.5830 O         1 <0>         0.0000
   9862 WAT       -37.1820  -77.1660   -4.3330 O         1 <0>         0.0000
   9863 WAT       -37.1820  -77.1660   -4.0830 O         1 <0>         0.0000
   9864 WAT       -37.1820  -77.1660   -3.8330 O         1 <0>         0.0000
   9865 WAT       -37.1820  -77.1660   -3.5830 O         1 <0>         0.0000
   9866 WAT       -37.1820  -77.1660   -3.3330 O         1 <0>         0.0000
   9867 WAT       -37.1820  -77.1660   -3.0830 O         1 <0>         0.0000
   9868 WAT       -37.1820  -77.1660   -2.8330 O         1 <0>         0.0000
   9869 WAT       -37.1820  -77.1660   -2.5830 O         1 <0>         0.0000
   9870 WAT       -37.1820  -77.1660   -2.3330 O         1 <0>         0.0000
   9871 WAT       -37.1820  -77.1660   -2.0830 O         1 <0>         0.0000
   9872 WAT       -37.1820  -77.1660   -1.8330 O         1 <0>         0.0000
   9873 WAT       -37.1820  -77.1660   -1.5830 O         1 <0>         0.0000
   9874 WAT       -37.1820  -77.1660   -1.3330 O         1 <0>         0.0000
   9875 WAT       -37.1820  -77.1660   -1.0830 O         1 <0>         0.0000
   9876 WAT       -37.1820  -77.1660   -0.8330 O         1 <0>         0.0000
   9877 WAT       -37.1820  -77.1660   -0.5830 O         1 <0>         0.0000
   9878 WAT       -37.1820  -77.1660   -0.3330 O         1 <0>         0.0000
   9879 WAT       -37.1820  -77.1660   -0.0830 O         1 <0>         0.0000
   9880 WAT       -37.1820  -76.9160   -9.8330 O         1 <0>         0.0000
   9881 WAT       -37.1820  -76.9160   -9.5830 O         1 <0>         0.0000
   9882 WAT       -37.1820  -76.9160   -9.3330 O         1 <0>         0.0000
   9883 WAT       -37.1820  -76.9160   -9.0830 O         1 <0>         0.0000
   9884 WAT       -37.1820  -76.9160   -8.8330 O         1 <0>         0.0000
   9885 WAT       -37.1820  -76.9160   -8.5830 O         1 <0>         0.0000
   9886 WAT       -37.1820  -76.9160   -8.3330 O         1 <0>         0.0000
   9887 WAT       -37.1820  -76.9160   -8.0830 O         1 <0>         0.0000
   9888 WAT       -37.1820  -76.9160   -7.8330 O         1 <0>         0.0000
   9889 WAT       -37.1820  -76.9160   -7.5830 O         1 <0>         0.0000
   9890 WAT       -37.1820  -76.9160   -7.3330 O         1 <0>         0.0000
   9891 WAT       -37.1820  -76.9160   -7.0830 O         1 <0>         0.0000
   9892 WAT       -37.1820  -76.9160   -6.8330 O         1 <0>         0.0000
   9893 WAT       -37.1820  -76.9160   -6.5830 O         1 <0>         0.0000
   9894 WAT       -37.1820  -76.9160   -6.3330 O         1 <0>         0.0000
   9895 WAT       -37.1820  -76.9160   -6.0830 O         1 <0>         0.0000
   9896 WAT       -37.1820  -76.9160   -5.8330 O         1 <0>         0.0000
   9897 WAT       -37.1820  -76.9160   -5.5830 O         1 <0>         0.0000
   9898 WAT       -37.1820  -76.9160   -5.3330 O         1 <0>         0.0000
   9899 WAT       -37.1820  -76.9160   -5.0830 O         1 <0>         0.0000
   9900 WAT       -37.1820  -76.9160   -4.8330 O         1 <0>         0.0000
   9901 WAT       -37.1820  -76.9160   -4.5830 O         1 <0>         0.0000
   9902 WAT       -37.1820  -76.9160   -4.3330 O         1 <0>         0.0000
   9903 WAT       -37.1820  -76.9160   -4.0830 O         1 <0>         0.0000
   9904 WAT       -37.1820  -76.9160   -3.8330 O         1 <0>         0.0000
   9905 WAT       -37.1820  -76.9160   -3.5830 O         1 <0>         0.0000
   9906 WAT       -37.1820  -76.9160   -3.3330 O         1 <0>         0.0000
   9907 WAT       -37.1820  -76.9160   -3.0830 O         1 <0>         0.0000
   9908 WAT       -37.1820  -76.9160   -2.8330 O         1 <0>         0.0000
   9909 WAT       -37.1820  -76.9160   -2.5830 O         1 <0>         0.0000
   9910 WAT       -37.1820  -76.9160   -2.3330 O         1 <0>         0.0000
   9911 WAT       -37.1820  -76.9160   -2.0830 O         1 <0>         0.0000
   9912 WAT       -37.1820  -76.9160   -1.8330 O         1 <0>         0.0000
   9913 WAT       -37.1820  -76.9160   -1.5830 O         1 <0>         0.0000
   9914 WAT       -37.1820  -76.9160   -1.3330 O         1 <0>         0.0000
   9915 WAT       -37.1820  -76.9160   -1.0830 O         1 <0>         0.0000
   9916 WAT       -37.1820  -76.9160   -0.8330 O         1 <0>         0.0000
   9917 WAT       -37.1820  -76.9160   -0.5830 O         1 <0>         0.0000
   9918 WAT       -37.1820  -76.9160   -0.3330 O         1 <0>         0.0000
   9919 WAT       -37.1820  -76.9160   -0.0830 O         1 <0>         0.0000
   9920 WAT       -37.1820  -76.6660   -9.8330 O         1 <0>         0.0000
   9921 WAT       -37.1820  -76.6660   -9.5830 O         1 <0>         0.0000
   9922 WAT       -37.1820  -76.6660   -9.3330 O         1 <0>         0.0000
   9923 WAT       -37.1820  -76.6660   -9.0830 O         1 <0>         0.0000
   9924 WAT       -37.1820  -76.6660   -8.8330 O         1 <0>         0.0000
   9925 WAT       -37.1820  -76.6660   -8.5830 O         1 <0>         0.0000
   9926 WAT       -37.1820  -76.6660   -8.3330 O         1 <0>         0.0000
   9927 WAT       -37.1820  -76.6660   -8.0830 O         1 <0>         0.0000
   9928 WAT       -37.1820  -76.6660   -7.8330 O         1 <0>         0.0000
   9929 WAT       -37.1820  -76.6660   -7.5830 O         1 <0>         0.0000
   9930 WAT       -37.1820  -76.6660   -7.3330 O         1 <0>         0.0000
   9931 WAT       -37.1820  -76.6660   -7.0830 O         1 <0>         0.0000
   9932 WAT       -37.1820  -76.6660   -6.8330 O         1 <0>         0.0000
   9933 WAT       -37.1820  -76.6660   -6.5830 O         1 <0>         0.0000
   9934 WAT       -37.1820  -76.6660   -6.3330 O         1 <0>         0.0000
   9935 WAT       -37.1820  -76.6660   -6.0830 O         1 <0>         0.0000
   9936 WAT       -37.1820  -76.6660   -5.8330 O         1 <0>         0.0000
   9937 WAT       -37.1820  -76.6660   -5.5830 O         1 <0>         0.0000
   9938 WAT       -37.1820  -76.6660   -5.3330 O         1 <0>         0.0000
   9939 WAT       -37.1820  -76.6660   -5.0830 O         1 <0>         0.0000
   9940 WAT       -37.1820  -76.6660   -4.8330 O         1 <0>         0.0000
   9941 WAT       -37.1820  -76.6660   -4.5830 O         1 <0>         0.0000
   9942 WAT       -37.1820  -76.6660   -4.3330 O         1 <0>         0.0000
   9943 WAT       -37.1820  -76.6660   -4.0830 O         1 <0>         0.0000
   9944 WAT       -37.1820  -76.6660   -3.8330 O         1 <0>         0.0000
   9945 WAT       -37.1820  -76.6660   -3.5830 O         1 <0>         0.0000
   9946 WAT       -37.1820  -76.6660   -3.3330 O         1 <0>         0.0000
   9947 WAT       -37.1820  -76.6660   -3.0830 O         1 <0>         0.0000
   9948 WAT       -37.1820  -76.6660   -2.8330 O         1 <0>         0.0000
   9949 WAT       -37.1820  -76.6660   -2.5830 O         1 <0>         0.0000
   9950 WAT       -37.1820  -76.6660   -2.3330 O         1 <0>         0.0000
   9951 WAT       -37.1820  -76.6660   -2.0830 O         1 <0>         0.0000
   9952 WAT       -37.1820  -76.6660   -1.8330 O         1 <0>         0.0000
   9953 WAT       -37.1820  -76.6660   -1.5830 O         1 <0>         0.0000
   9954 WAT       -37.1820  -76.6660   -1.3330 O         1 <0>         0.0000
   9955 WAT       -37.1820  -76.6660   -1.0830 O         1 <0>         0.0000
   9956 WAT       -37.1820  -76.6660   -0.8330 O         1 <0>         0.0000
   9957 WAT       -37.1820  -76.6660   -0.5830 O         1 <0>         0.0000
   9958 WAT       -37.1820  -76.6660   -0.3330 O         1 <0>         0.0000
   9959 WAT       -37.1820  -76.6660   -0.0830 O         1 <0>         0.0000
   9960 WAT       -37.1820  -76.4160   -9.8330 O         1 <0>         0.0000
   9961 WAT       -37.1820  -76.4160   -9.5830 O         1 <0>         0.0000
   9962 WAT       -37.1820  -76.4160   -9.3330 O         1 <0>         0.0000
   9963 WAT       -37.1820  -76.4160   -9.0830 O         1 <0>         0.0000
   9964 WAT       -37.1820  -76.4160   -8.8330 O         1 <0>         0.0000
   9965 WAT       -37.1820  -76.4160   -8.5830 O         1 <0>         0.0000
   9966 WAT       -37.1820  -76.4160   -8.3330 O         1 <0>         0.0000
   9967 WAT       -37.1820  -76.4160   -8.0830 O         1 <0>         0.0000
   9968 WAT       -37.1820  -76.4160   -7.8330 O         1 <0>         0.0000
   9969 WAT       -37.1820  -76.4160   -7.5830 O         1 <0>         0.0000
   9970 WAT       -37.1820  -76.4160   -7.3330 O         1 <0>         0.0000
   9971 WAT       -37.1820  -76.4160   -7.0830 O         1 <0>         0.0000
   9972 WAT       -37.1820  -76.4160   -6.8330 O         1 <0>         0.0000
   9973 WAT       -37.1820  -76.4160   -6.5830 O         1 <0>         0.0000
   9974 WAT       -37.1820  -76.4160   -6.3330 O         1 <0>         0.0000
   9975 WAT       -37.1820  -76.4160   -6.0830 O         1 <0>         0.0000
   9976 WAT       -37.1820  -76.4160   -5.8330 O         1 <0>         0.0000
   9977 WAT       -37.1820  -76.4160   -5.5830 O         1 <0>         0.0000
   9978 WAT       -37.1820  -76.4160   -5.3330 O         1 <0>         0.0000
   9979 WAT       -37.1820  -76.4160   -5.0830 O         1 <0>         0.0000
   9980 WAT       -37.1820  -76.4160   -4.8330 O         1 <0>         0.0000
   9981 WAT       -37.1820  -76.4160   -4.5830 O         1 <0>         0.0000
   9982 WAT       -37.1820  -76.4160   -4.3330 O         1 <0>         0.0000
   9983 WAT       -37.1820  -76.4160   -4.0830 O         1 <0>         0.0000
   9984 WAT       -37.1820  -76.4160   -3.8330 O         1 <0>         0.0000
   9985 WAT       -37.1820  -76.4160   -3.5830 O         1 <0>         0.0000
   9986 WAT       -37.1820  -76.4160   -3.3330 O         1 <0>         0.0000
   9987 WAT       -37.1820  -76.4160   -3.0830 O         1 <0>         0.0000
   9988 WAT       -37.1820  -76.4160   -2.8330 O         1 <0>         0.0000
   9989 WAT       -37.1820  -76.4160   -2.5830 O         1 <0>         0.0000
   9990 WAT       -37.1820  -76.4160   -2.3330 O         1 <0>         0.0000
   9991 WAT       -37.1820  -76.4160   -2.0830 O         1 <0>         0.0000
   9992 WAT       -37.1820  -76.4160   -1.8330 O         1 <0>         0.0000
   9993 WAT       -37.1820  -76.4160   -1.5830 O         1 <0>         0.0000
   9994 WAT       -37.1820  -76.4160   -1.3330 O         1 <0>         0.0000
   9995 WAT       -37.1820  -76.4160   -1.0830 O         1 <0>         0.0000
   9996 WAT       -37.1820  -76.4160   -0.8330 O         1 <0>         0.0000
   9997 WAT       -37.1820  -76.4160   -0.5830 O         1 <0>         0.0000
   9998 WAT       -37.1820  -76.4160   -0.3330 O         1 <0>         0.0000
   9999 WAT       -37.1820  -76.4160   -0.0830 O         1 <0>         0.0000
  10000 WAT       -37.1820  -76.1660   -9.8330 O         1 <0>         0.0000
  10001 WAT       -37.1820  -76.1660   -9.5830 O         1 <0>         0.0000
  10002 WAT       -37.1820  -76.1660   -9.3330 O         1 <0>         0.0000
  10003 WAT       -37.1820  -76.1660   -9.0830 O         1 <0>         0.0000
  10004 WAT       -37.1820  -76.1660   -8.8330 O         1 <0>         0.0000
  10005 WAT       -37.1820  -76.1660   -8.5830 O         1 <0>         0.0000
  10006 WAT       -37.1820  -76.1660   -8.3330 O         1 <0>         0.0000
  10007 WAT       -37.1820  -76.1660   -8.0830 O         1 <0>         0.0000
  10008 WAT       -37.1820  -76.1660   -7.8330 O         1 <0>         0.0000
  10009 WAT       -37.1820  -76.1660   -7.5830 O         1 <0>         0.0000
  10010 WAT       -37.1820  -76.1660   -7.3330 O         1 <0>         0.0000
  10011 WAT       -37.1820  -76.1660   -7.0830 O         1 <0>         0.0000
  10012 WAT       -37.1820  -76.1660   -6.8330 O         1 <0>         0.0000
  10013 WAT       -37.1820  -76.1660   -6.5830 O         1 <0>         0.0000
  10014 WAT       -37.1820  -76.1660   -6.3330 O         1 <0>         0.0000
  10015 WAT       -37.1820  -76.1660   -6.0830 O         1 <0>         0.0000
  10016 WAT       -37.1820  -76.1660   -5.8330 O         1 <0>         0.0000
  10017 WAT       -37.1820  -76.1660   -5.5830 O         1 <0>         0.0000
  10018 WAT       -37.1820  -76.1660   -5.3330 O         1 <0>         0.0000
  10019 WAT       -37.1820  -76.1660   -5.0830 O         1 <0>         0.0000
  10020 WAT       -37.1820  -76.1660   -4.8330 O         1 <0>         0.0000
  10021 WAT       -37.1820  -76.1660   -4.5830 O         1 <0>         0.0000
  10022 WAT       -37.1820  -76.1660   -4.3330 O         1 <0>         0.0000
  10023 WAT       -37.1820  -76.1660   -4.0830 O         1 <0>         0.0000
  10024 WAT       -37.1820  -76.1660   -3.8330 O         1 <0>         0.0000
  10025 WAT       -37.1820  -76.1660   -3.5830 O         1 <0>         0.0000
  10026 WAT       -37.1820  -76.1660   -3.3330 O         1 <0>         0.0000
  10027 WAT       -37.1820  -76.1660   -3.0830 O         1 <0>         0.0000
  10028 WAT       -37.1820  -76.1660   -2.8330 O         1 <0>         0.0000
  10029 WAT       -37.1820  -76.1660   -2.5830 O         1 <0>         0.0000
  10030 WAT       -37.1820  -76.1660   -2.3330 O         1 <0>         0.0000
  10031 WAT       -37.1820  -76.1660   -2.0830 O         1 <0>         0.0000
  10032 WAT       -37.1820  -76.1660   -1.8330 O         1 <0>         0.0000
  10033 WAT       -37.1820  -76.1660   -1.5830 O         1 <0>         0.0000
  10034 WAT       -37.1820  -76.1660   -1.3330 O         1 <0>         0.0000
  10035 WAT       -37.1820  -76.1660   -1.0830 O         1 <0>         0.0000
  10036 WAT       -37.1820  -76.1660   -0.8330 O         1 <0>         0.0000
  10037 WAT       -37.1820  -76.1660   -0.5830 O         1 <0>         0.0000
  10038 WAT       -37.1820  -76.1660   -0.3330 O         1 <0>         0.0000
  10039 WAT       -37.1820  -76.1660   -0.0830 O         1 <0>         0.0000
  10040 WAT       -37.1820  -75.9160   -9.8330 O         1 <0>         0.0000
  10041 WAT       -37.1820  -75.9160   -9.5830 O         1 <0>         0.0000
  10042 WAT       -37.1820  -75.9160   -9.3330 O         1 <0>         0.0000
  10043 WAT       -37.1820  -75.9160   -9.0830 O         1 <0>         0.0000
  10044 WAT       -37.1820  -75.9160   -8.8330 O         1 <0>         0.0000
  10045 WAT       -37.1820  -75.9160   -8.5830 O         1 <0>         0.0000
  10046 WAT       -37.1820  -75.9160   -8.3330 O         1 <0>         0.0000
  10047 WAT       -37.1820  -75.9160   -8.0830 O         1 <0>         0.0000
  10048 WAT       -37.1820  -75.9160   -7.8330 O         1 <0>         0.0000
  10049 WAT       -37.1820  -75.9160   -7.5830 O         1 <0>         0.0000
  10050 WAT       -37.1820  -75.9160   -7.3330 O         1 <0>         0.0000
  10051 WAT       -37.1820  -75.9160   -7.0830 O         1 <0>         0.0000
  10052 WAT       -37.1820  -75.9160   -6.8330 O         1 <0>         0.0000
  10053 WAT       -37.1820  -75.9160   -6.5830 O         1 <0>         0.0000
  10054 WAT       -37.1820  -75.9160   -6.3330 O         1 <0>         0.0000
  10055 WAT       -37.1820  -75.9160   -6.0830 O         1 <0>         0.0000
  10056 WAT       -37.1820  -75.9160   -5.8330 O         1 <0>         0.0000
  10057 WAT       -37.1820  -75.9160   -5.5830 O         1 <0>         0.0000
  10058 WAT       -37.1820  -75.9160   -5.3330 O         1 <0>         0.0000
  10059 WAT       -37.1820  -75.9160   -5.0830 O         1 <0>         0.0000
  10060 WAT       -37.1820  -75.9160   -4.8330 O         1 <0>         0.0000
  10061 WAT       -37.1820  -75.9160   -4.5830 O         1 <0>         0.0000
  10062 WAT       -37.1820  -75.9160   -4.3330 O         1 <0>         0.0000
  10063 WAT       -37.1820  -75.9160   -4.0830 O         1 <0>         0.0000
  10064 WAT       -37.1820  -75.9160   -3.8330 O         1 <0>         0.0000
  10065 WAT       -37.1820  -75.9160   -3.5830 O         1 <0>         0.0000
  10066 WAT       -37.1820  -75.9160   -3.3330 O         1 <0>         0.0000
  10067 WAT       -37.1820  -75.9160   -3.0830 O         1 <0>         0.0000
  10068 WAT       -37.1820  -75.9160   -2.8330 O         1 <0>         0.0000
  10069 WAT       -37.1820  -75.9160   -2.5830 O         1 <0>         0.0000
  10070 WAT       -37.1820  -75.9160   -2.3330 O         1 <0>         0.0000
  10071 WAT       -37.1820  -75.9160   -2.0830 O         1 <0>         0.0000
  10072 WAT       -37.1820  -75.9160   -1.8330 O         1 <0>         0.0000
  10073 WAT       -37.1820  -75.9160   -1.5830 O         1 <0>         0.0000
  10074 WAT       -37.1820  -75.9160   -1.3330 O         1 <0>         0.0000
  10075 WAT       -37.1820  -75.9160   -1.0830 O         1 <0>         0.0000
  10076 WAT       -37.1820  -75.9160   -0.8330 O         1 <0>         0.0000
  10077 WAT       -37.1820  -75.9160   -0.5830 O         1 <0>         0.0000
  10078 WAT       -37.1820  -75.9160   -0.3330 O         1 <0>         0.0000
  10079 WAT       -37.1820  -75.9160   -0.0830 O         1 <0>         0.0000
  10080 WAT       -37.1820  -75.6660   -9.8330 O         1 <0>         0.0000
  10081 WAT       -37.1820  -75.6660   -9.5830 O         1 <0>         0.0000
  10082 WAT       -37.1820  -75.6660   -9.3330 O         1 <0>         0.0000
  10083 WAT       -37.1820  -75.6660   -9.0830 O         1 <0>         0.0000
  10084 WAT       -37.1820  -75.6660   -8.8330 O         1 <0>         0.0000
  10085 WAT       -37.1820  -75.6660   -8.5830 O         1 <0>         0.0000
  10086 WAT       -37.1820  -75.6660   -8.3330 O         1 <0>         0.0000
  10087 WAT       -37.1820  -75.6660   -8.0830 O         1 <0>         0.0000
  10088 WAT       -37.1820  -75.6660   -7.8330 O         1 <0>         0.0000
  10089 WAT       -37.1820  -75.6660   -7.5830 O         1 <0>         0.0000
  10090 WAT       -37.1820  -75.6660   -7.3330 O         1 <0>         0.0000
  10091 WAT       -37.1820  -75.6660   -7.0830 O         1 <0>         0.0000
  10092 WAT       -37.1820  -75.6660   -6.8330 O         1 <0>         0.0000
  10093 WAT       -37.1820  -75.6660   -6.5830 O         1 <0>         0.0000
  10094 WAT       -37.1820  -75.6660   -6.3330 O         1 <0>         0.0000
  10095 WAT       -37.1820  -75.6660   -6.0830 O         1 <0>         0.0000
  10096 WAT       -37.1820  -75.6660   -5.8330 O         1 <0>         0.0000
  10097 WAT       -37.1820  -75.6660   -5.5830 O         1 <0>         0.0000
  10098 WAT       -37.1820  -75.6660   -5.3330 O         1 <0>         0.0000
  10099 WAT       -37.1820  -75.6660   -5.0830 O         1 <0>         0.0000
  10100 WAT       -37.1820  -75.6660   -4.8330 O         1 <0>         0.0000
  10101 WAT       -37.1820  -75.6660   -4.5830 O         1 <0>         0.0000
  10102 WAT       -37.1820  -75.6660   -4.3330 O         1 <0>         0.0000
  10103 WAT       -37.1820  -75.6660   -4.0830 O         1 <0>         0.0000
  10104 WAT       -37.1820  -75.6660   -3.8330 O         1 <0>         0.0000
  10105 WAT       -37.1820  -75.6660   -3.5830 O         1 <0>         0.0000
  10106 WAT       -37.1820  -75.6660   -3.3330 O         1 <0>         0.0000
  10107 WAT       -37.1820  -75.6660   -3.0830 O         1 <0>         0.0000
  10108 WAT       -37.1820  -75.6660   -2.8330 O         1 <0>         0.0000
  10109 WAT       -37.1820  -75.6660   -2.5830 O         1 <0>         0.0000
  10110 WAT       -37.1820  -75.6660   -2.3330 O         1 <0>         0.0000
  10111 WAT       -37.1820  -75.6660   -2.0830 O         1 <0>         0.0000
  10112 WAT       -37.1820  -75.6660   -1.8330 O         1 <0>         0.0000
  10113 WAT       -37.1820  -75.6660   -1.5830 O         1 <0>         0.0000
  10114 WAT       -37.1820  -75.6660   -1.3330 O         1 <0>         0.0000
  10115 WAT       -37.1820  -75.6660   -1.0830 O         1 <0>         0.0000
  10116 WAT       -37.1820  -75.6660   -0.8330 O         1 <0>         0.0000
  10117 WAT       -37.1820  -75.6660   -0.5830 O         1 <0>         0.0000
  10118 WAT       -37.1820  -75.6660   -0.3330 O         1 <0>         0.0000
  10119 WAT       -37.1820  -75.6660   -0.0830 O         1 <0>         0.0000
  10120 WAT       -37.1820  -75.4160   -9.8330 O         1 <0>         0.0000
  10121 WAT       -37.1820  -75.4160   -9.5830 O         1 <0>         0.0000
  10122 WAT       -37.1820  -75.4160   -9.3330 O         1 <0>         0.0000
  10123 WAT       -37.1820  -75.4160   -9.0830 O         1 <0>         0.0000
  10124 WAT       -37.1820  -75.4160   -8.8330 O         1 <0>         0.0000
  10125 WAT       -37.1820  -75.4160   -8.5830 O         1 <0>         0.0000
  10126 WAT       -37.1820  -75.4160   -8.3330 O         1 <0>         0.0000
  10127 WAT       -37.1820  -75.4160   -8.0830 O         1 <0>         0.0000
  10128 WAT       -37.1820  -75.4160   -7.8330 O         1 <0>         0.0000
  10129 WAT       -37.1820  -75.4160   -7.5830 O         1 <0>         0.0000
  10130 WAT       -37.1820  -75.4160   -7.3330 O         1 <0>         0.0000
  10131 WAT       -37.1820  -75.4160   -7.0830 O         1 <0>         0.0000
  10132 WAT       -37.1820  -75.4160   -6.8330 O         1 <0>         0.0000
  10133 WAT       -37.1820  -75.4160   -6.5830 O         1 <0>         0.0000
  10134 WAT       -37.1820  -75.4160   -6.3330 O         1 <0>         0.0000
  10135 WAT       -37.1820  -75.4160   -6.0830 O         1 <0>         0.0000
  10136 WAT       -37.1820  -75.4160   -5.8330 O         1 <0>         0.0000
  10137 WAT       -37.1820  -75.4160   -5.5830 O         1 <0>         0.0000
  10138 WAT       -37.1820  -75.4160   -5.3330 O         1 <0>         0.0000
  10139 WAT       -37.1820  -75.4160   -5.0830 O         1 <0>         0.0001
  10140 WAT       -37.1820  -75.4160   -4.8330 O         1 <0>         0.0002
  10141 WAT       -37.1820  -75.4160   -4.5830 O         1 <0>         0.0002
  10142 WAT       -37.1820  -75.4160   -4.3330 O         1 <0>         0.0001
  10143 WAT       -37.1820  -75.4160   -4.0830 O         1 <0>         0.0001
  10144 WAT       -37.1820  -75.4160   -3.8330 O         1 <0>         0.0000
  10145 WAT       -37.1820  -75.4160   -3.5830 O         1 <0>         0.0000
  10146 WAT       -37.1820  -75.4160   -3.3330 O         1 <0>         0.0000
  10147 WAT       -37.1820  -75.4160   -3.0830 O         1 <0>         0.0000
  10148 WAT       -37.1820  -75.4160   -2.8330 O         1 <0>         0.0000
  10149 WAT       -37.1820  -75.4160   -2.5830 O         1 <0>         0.0000
  10150 WAT       -37.1820  -75.4160   -2.3330 O         1 <0>         0.0000
  10151 WAT       -37.1820  -75.4160   -2.0830 O         1 <0>         0.0000
  10152 WAT       -37.1820  -75.4160   -1.8330 O         1 <0>         0.0000
  10153 WAT       -37.1820  -75.4160   -1.5830 O         1 <0>         0.0000
  10154 WAT       -37.1820  -75.4160   -1.3330 O         1 <0>         0.0000
  10155 WAT       -37.1820  -75.4160   -1.0830 O         1 <0>         0.0000
  10156 WAT       -37.1820  -75.4160   -0.8330 O         1 <0>         0.0000
  10157 WAT       -37.1820  -75.4160   -0.5830 O         1 <0>         0.0000
  10158 WAT       -37.1820  -75.4160   -0.3330 O         1 <0>         0.0000
  10159 WAT       -37.1820  -75.4160   -0.0830 O         1 <0>         0.0000
  10160 WAT       -37.1820  -75.1660   -9.8330 O         1 <0>         0.0000
  10161 WAT       -37.1820  -75.1660   -9.5830 O         1 <0>         0.0000
  10162 WAT       -37.1820  -75.1660   -9.3330 O         1 <0>         0.0000
  10163 WAT       -37.1820  -75.1660   -9.0830 O         1 <0>         0.0000
  10164 WAT       -37.1820  -75.1660   -8.8330 O         1 <0>         0.0000
  10165 WAT       -37.1820  -75.1660   -8.5830 O         1 <0>         0.0000
  10166 WAT       -37.1820  -75.1660   -8.3330 O         1 <0>         0.0000
  10167 WAT       -37.1820  -75.1660   -8.0830 O         1 <0>         0.0000
  10168 WAT       -37.1820  -75.1660   -7.8330 O         1 <0>         0.0000
  10169 WAT       -37.1820  -75.1660   -7.5830 O         1 <0>         0.0000
  10170 WAT       -37.1820  -75.1660   -7.3330 O         1 <0>         0.0000
  10171 WAT       -37.1820  -75.1660   -7.0830 O         1 <0>         0.0000
  10172 WAT       -37.1820  -75.1660   -6.8330 O         1 <0>         0.0000
  10173 WAT       -37.1820  -75.1660   -6.5830 O         1 <0>         0.0000
  10174 WAT       -37.1820  -75.1660   -6.3330 O         1 <0>         0.0000
  10175 WAT       -37.1820  -75.1660   -6.0830 O         1 <0>         0.0000
  10176 WAT       -37.1820  -75.1660   -5.8330 O         1 <0>         0.0000
  10177 WAT       -37.1820  -75.1660   -5.5830 O         1 <0>         0.0001
  10178 WAT       -37.1820  -75.1660   -5.3330 O         1 <0>         0.0002
  10179 WAT       -37.1820  -75.1660   -5.0830 O         1 <0>         0.0005
  10180 WAT       -37.1820  -75.1660   -4.8330 O         1 <0>         0.0007
  10181 WAT       -37.1820  -75.1660   -4.5830 O         1 <0>         0.0007
  10182 WAT       -37.1820  -75.1660   -4.3330 O         1 <0>         0.0005
  10183 WAT       -37.1820  -75.1660   -4.0830 O         1 <0>         0.0002
  10184 WAT       -37.1820  -75.1660   -3.8330 O         1 <0>         0.0001
  10185 WAT       -37.1820  -75.1660   -3.5830 O         1 <0>         0.0000
  10186 WAT       -37.1820  -75.1660   -3.3330 O         1 <0>         0.0000
  10187 WAT       -37.1820  -75.1660   -3.0830 O         1 <0>         0.0000
  10188 WAT       -37.1820  -75.1660   -2.8330 O         1 <0>         0.0000
  10189 WAT       -37.1820  -75.1660   -2.5830 O         1 <0>         0.0000
  10190 WAT       -37.1820  -75.1660   -2.3330 O         1 <0>         0.0000
  10191 WAT       -37.1820  -75.1660   -2.0830 O         1 <0>         0.0000
  10192 WAT       -37.1820  -75.1660   -1.8330 O         1 <0>         0.0000
  10193 WAT       -37.1820  -75.1660   -1.5830 O         1 <0>         0.0000
  10194 WAT       -37.1820  -75.1660   -1.3330 O         1 <0>         0.0000
  10195 WAT       -37.1820  -75.1660   -1.0830 O         1 <0>         0.0000
  10196 WAT       -37.1820  -75.1660   -0.8330 O         1 <0>         0.0000
  10197 WAT       -37.1820  -75.1660   -0.5830 O         1 <0>         0.0000
  10198 WAT       -37.1820  -75.1660   -0.3330 O         1 <0>         0.0000
  10199 WAT       -37.1820  -75.1660   -0.0830 O         1 <0>         0.0000
  10200 WAT       -37.1820  -74.9160   -9.8330 O         1 <0>         0.0000
  10201 WAT       -37.1820  -74.9160   -9.5830 O         1 <0>         0.0000
  10202 WAT       -37.1820  -74.9160   -9.3330 O         1 <0>         0.0000
  10203 WAT       -37.1820  -74.9160   -9.0830 O         1 <0>         0.0000
  10204 WAT       -37.1820  -74.9160   -8.8330 O         1 <0>         0.0000
  10205 WAT       -37.1820  -74.9160   -8.5830 O         1 <0>         0.0000
  10206 WAT       -37.1820  -74.9160   -8.3330 O         1 <0>         0.0000
  10207 WAT       -37.1820  -74.9160   -8.0830 O         1 <0>         0.0000
  10208 WAT       -37.1820  -74.9160   -7.8330 O         1 <0>         0.0000
  10209 WAT       -37.1820  -74.9160   -7.5830 O         1 <0>         0.0000
  10210 WAT       -37.1820  -74.9160   -7.3330 O         1 <0>         0.0000
  10211 WAT       -37.1820  -74.9160   -7.0830 O         1 <0>         0.0000
  10212 WAT       -37.1820  -74.9160   -6.8330 O         1 <0>         0.0000
  10213 WAT       -37.1820  -74.9160   -6.5830 O         1 <0>         0.0000
  10214 WAT       -37.1820  -74.9160   -6.3330 O         1 <0>         0.0000
  10215 WAT       -37.1820  -74.9160   -6.0830 O         1 <0>         0.0000
  10216 WAT       -37.1820  -74.9160   -5.8330 O         1 <0>         0.0001
  10217 WAT       -37.1820  -74.9160   -5.5830 O         1 <0>         0.0002
  10218 WAT       -37.1820  -74.9160   -5.3330 O         1 <0>         0.0006
  10219 WAT       -37.1820  -74.9160   -5.0830 O         1 <0>         0.0011
  10220 WAT       -37.1820  -74.9160   -4.8330 O         1 <0>         0.0015
  10221 WAT       -37.1820  -74.9160   -4.5830 O         1 <0>         0.0015
  10222 WAT       -37.1820  -74.9160   -4.3330 O         1 <0>         0.0011
  10223 WAT       -37.1820  -74.9160   -4.0830 O         1 <0>         0.0006
  10224 WAT       -37.1820  -74.9160   -3.8330 O         1 <0>         0.0002
  10225 WAT       -37.1820  -74.9160   -3.5830 O         1 <0>         0.0000
  10226 WAT       -37.1820  -74.9160   -3.3330 O         1 <0>         0.0000
  10227 WAT       -37.1820  -74.9160   -3.0830 O         1 <0>         0.0000
  10228 WAT       -37.1820  -74.9160   -2.8330 O         1 <0>         0.0000
  10229 WAT       -37.1820  -74.9160   -2.5830 O         1 <0>         0.0000
  10230 WAT       -37.1820  -74.9160   -2.3330 O         1 <0>         0.0000
  10231 WAT       -37.1820  -74.9160   -2.0830 O         1 <0>         0.0000
  10232 WAT       -37.1820  -74.9160   -1.8330 O         1 <0>         0.0000
  10233 WAT       -37.1820  -74.9160   -1.5830 O         1 <0>         0.0000
  10234 WAT       -37.1820  -74.9160   -1.3330 O         1 <0>         0.0000
  10235 WAT       -37.1820  -74.9160   -1.0830 O         1 <0>         0.0000
  10236 WAT       -37.1820  -74.9160   -0.8330 O         1 <0>         0.0000
  10237 WAT       -37.1820  -74.9160   -0.5830 O         1 <0>         0.0000
  10238 WAT       -37.1820  -74.9160   -0.3330 O         1 <0>         0.0000
  10239 WAT       -37.1820  -74.9160   -0.0830 O         1 <0>         0.0000
  10240 WAT       -37.1820  -74.6660   -9.8330 O         1 <0>         0.0000
  10241 WAT       -37.1820  -74.6660   -9.5830 O         1 <0>         0.0000
  10242 WAT       -37.1820  -74.6660   -9.3330 O         1 <0>         0.0000
  10243 WAT       -37.1820  -74.6660   -9.0830 O         1 <0>         0.0000
  10244 WAT       -37.1820  -74.6660   -8.8330 O         1 <0>         0.0000
  10245 WAT       -37.1820  -74.6660   -8.5830 O         1 <0>         0.0000
  10246 WAT       -37.1820  -74.6660   -8.3330 O         1 <0>         0.0000
  10247 WAT       -37.1820  -74.6660   -8.0830 O         1 <0>         0.0000
  10248 WAT       -37.1820  -74.6660   -7.8330 O         1 <0>         0.0000
  10249 WAT       -37.1820  -74.6660   -7.5830 O         1 <0>         0.0000
  10250 WAT       -37.1820  -74.6660   -7.3330 O         1 <0>         0.0000
  10251 WAT       -37.1820  -74.6660   -7.0830 O         1 <0>         0.0000
  10252 WAT       -37.1820  -74.6660   -6.8330 O         1 <0>         0.0000
  10253 WAT       -37.1820  -74.6660   -6.5830 O         1 <0>         0.0000
  10254 WAT       -37.1820  -74.6660   -6.3330 O         1 <0>         0.0000
  10255 WAT       -37.1820  -74.6660   -6.0830 O         1 <0>         0.0001
  10256 WAT       -37.1820  -74.6660   -5.8330 O         1 <0>         0.0003
  10257 WAT       -37.1820  -74.6660   -5.5830 O         1 <0>         0.0006
  10258 WAT       -37.1820  -74.6660   -5.3330 O         1 <0>         0.0012
  10259 WAT       -37.1820  -74.6660   -5.0830 O         1 <0>         0.0019
  10260 WAT       -37.1820  -74.6660   -4.8330 O         1 <0>         0.0025
  10261 WAT       -37.1820  -74.6660   -4.5830 O         1 <0>         0.0025
  10262 WAT       -37.1820  -74.6660   -4.3330 O         1 <0>         0.0018
  10263 WAT       -37.1820  -74.6660   -4.0830 O         1 <0>         0.0010
  10264 WAT       -37.1820  -74.6660   -3.8330 O         1 <0>         0.0004
  10265 WAT       -37.1820  -74.6660   -3.5830 O         1 <0>         0.0001
  10266 WAT       -37.1820  -74.6660   -3.3330 O         1 <0>         0.0000
  10267 WAT       -37.1820  -74.6660   -3.0830 O         1 <0>         0.0000
  10268 WAT       -37.1820  -74.6660   -2.8330 O         1 <0>         0.0000
  10269 WAT       -37.1820  -74.6660   -2.5830 O         1 <0>         0.0000
  10270 WAT       -37.1820  -74.6660   -2.3330 O         1 <0>         0.0000
  10271 WAT       -37.1820  -74.6660   -2.0830 O         1 <0>         0.0000
  10272 WAT       -37.1820  -74.6660   -1.8330 O         1 <0>         0.0000
  10273 WAT       -37.1820  -74.6660   -1.5830 O         1 <0>         0.0000
  10274 WAT       -37.1820  -74.6660   -1.3330 O         1 <0>         0.0000
  10275 WAT       -37.1820  -74.6660   -1.0830 O         1 <0>         0.0000
  10276 WAT       -37.1820  -74.6660   -0.8330 O         1 <0>         0.0000
  10277 WAT       -37.1820  -74.6660   -0.5830 O         1 <0>         0.0000
  10278 WAT       -37.1820  -74.6660   -0.3330 O         1 <0>         0.0000
  10279 WAT       -37.1820  -74.6660   -0.0830 O         1 <0>         0.0000
  10280 WAT       -37.1820  -74.4160   -9.8330 O         1 <0>         0.0000
  10281 WAT       -37.1820  -74.4160   -9.5830 O         1 <0>         0.0000
  10282 WAT       -37.1820  -74.4160   -9.3330 O         1 <0>         0.0000
  10283 WAT       -37.1820  -74.4160   -9.0830 O         1 <0>         0.0000
  10284 WAT       -37.1820  -74.4160   -8.8330 O         1 <0>         0.0000
  10285 WAT       -37.1820  -74.4160   -8.5830 O         1 <0>         0.0000
  10286 WAT       -37.1820  -74.4160   -8.3330 O         1 <0>         0.0000
  10287 WAT       -37.1820  -74.4160   -8.0830 O         1 <0>         0.0000
  10288 WAT       -37.1820  -74.4160   -7.8330 O         1 <0>         0.0000
  10289 WAT       -37.1820  -74.4160   -7.5830 O         1 <0>         0.0000
  10290 WAT       -37.1820  -74.4160   -7.3330 O         1 <0>         0.0000
  10291 WAT       -37.1820  -74.4160   -7.0830 O         1 <0>         0.0000
  10292 WAT       -37.1820  -74.4160   -6.8330 O         1 <0>         0.0000
  10293 WAT       -37.1820  -74.4160   -6.5830 O         1 <0>         0.0000
  10294 WAT       -37.1820  -74.4160   -6.3330 O         1 <0>         0.0001
  10295 WAT       -37.1820  -74.4160   -6.0830 O         1 <0>         0.0006
  10296 WAT       -37.1820  -74.4160   -5.8330 O         1 <0>         0.0011
  10297 WAT       -37.1820  -74.4160   -5.5830 O         1 <0>         0.0016
  10298 WAT       -37.1820  -74.4160   -5.3330 O         1 <0>         0.0021
  10299 WAT       -37.1820  -74.4160   -5.0830 O         1 <0>         0.0027
  10300 WAT       -37.1820  -74.4160   -4.8330 O         1 <0>         0.0032
  10301 WAT       -37.1820  -74.4160   -4.5830 O         1 <0>         0.0030
  10302 WAT       -37.1820  -74.4160   -4.3330 O         1 <0>         0.0022
  10303 WAT       -37.1820  -74.4160   -4.0830 O         1 <0>         0.0012
  10304 WAT       -37.1820  -74.4160   -3.8330 O         1 <0>         0.0005
  10305 WAT       -37.1820  -74.4160   -3.5830 O         1 <0>         0.0001
  10306 WAT       -37.1820  -74.4160   -3.3330 O         1 <0>         0.0000
  10307 WAT       -37.1820  -74.4160   -3.0830 O         1 <0>         0.0000
  10308 WAT       -37.1820  -74.4160   -2.8330 O         1 <0>         0.0000
  10309 WAT       -37.1820  -74.4160   -2.5830 O         1 <0>         0.0000
  10310 WAT       -37.1820  -74.4160   -2.3330 O         1 <0>         0.0000
  10311 WAT       -37.1820  -74.4160   -2.0830 O         1 <0>         0.0000
  10312 WAT       -37.1820  -74.4160   -1.8330 O         1 <0>         0.0000
  10313 WAT       -37.1820  -74.4160   -1.5830 O         1 <0>         0.0000
  10314 WAT       -37.1820  -74.4160   -1.3330 O         1 <0>         0.0000
  10315 WAT       -37.1820  -74.4160   -1.0830 O         1 <0>         0.0000
  10316 WAT       -37.1820  -74.4160   -0.8330 O         1 <0>         0.0000
  10317 WAT       -37.1820  -74.4160   -0.5830 O         1 <0>         0.0000
  10318 WAT       -37.1820  -74.4160   -0.3330 O         1 <0>         0.0000
  10319 WAT       -37.1820  -74.4160   -0.0830 O         1 <0>         0.0000
  10320 WAT       -37.1820  -74.1660   -9.8330 O         1 <0>         0.0000
  10321 WAT       -37.1820  -74.1660   -9.5830 O         1 <0>         0.0000
  10322 WAT       -37.1820  -74.1660   -9.3330 O         1 <0>         0.0000
  10323 WAT       -37.1820  -74.1660   -9.0830 O         1 <0>         0.0000
  10324 WAT       -37.1820  -74.1660   -8.8330 O         1 <0>         0.0000
  10325 WAT       -37.1820  -74.1660   -8.5830 O         1 <0>         0.0000
  10326 WAT       -37.1820  -74.1660   -8.3330 O         1 <0>         0.0000
  10327 WAT       -37.1820  -74.1660   -8.0830 O         1 <0>         0.0000
  10328 WAT       -37.1820  -74.1660   -7.8330 O         1 <0>         0.0000
  10329 WAT       -37.1820  -74.1660   -7.5830 O         1 <0>         0.0000
  10330 WAT       -37.1820  -74.1660   -7.3330 O         1 <0>         0.0000
  10331 WAT       -37.1820  -74.1660   -7.0830 O         1 <0>         0.0000
  10332 WAT       -37.1820  -74.1660   -6.8330 O         1 <0>         0.0000
  10333 WAT       -37.1820  -74.1660   -6.5830 O         1 <0>         0.0001
  10334 WAT       -37.1820  -74.1660   -6.3330 O         1 <0>         0.0006
  10335 WAT       -37.1820  -74.1660   -6.0830 O         1 <0>         0.0018
  10336 WAT       -37.1820  -74.1660   -5.8330 O         1 <0>         0.0029
  10337 WAT       -37.1820  -74.1660   -5.5830 O         1 <0>         0.0033
  10338 WAT       -37.1820  -74.1660   -5.3330 O         1 <0>         0.0032
  10339 WAT       -37.1820  -74.1660   -5.0830 O         1 <0>         0.0032
  10340 WAT       -37.1820  -74.1660   -4.8330 O         1 <0>         0.0031
  10341 WAT       -37.1820  -74.1660   -4.5830 O         1 <0>         0.0027
  10342 WAT       -37.1820  -74.1660   -4.3330 O         1 <0>         0.0019
  10343 WAT       -37.1820  -74.1660   -4.0830 O         1 <0>         0.0010
  10344 WAT       -37.1820  -74.1660   -3.8330 O         1 <0>         0.0004
  10345 WAT       -37.1820  -74.1660   -3.5830 O         1 <0>         0.0001
  10346 WAT       -37.1820  -74.1660   -3.3330 O         1 <0>         0.0000
  10347 WAT       -37.1820  -74.1660   -3.0830 O         1 <0>         0.0000
  10348 WAT       -37.1820  -74.1660   -2.8330 O         1 <0>         0.0000
  10349 WAT       -37.1820  -74.1660   -2.5830 O         1 <0>         0.0000
  10350 WAT       -37.1820  -74.1660   -2.3330 O         1 <0>         0.0000
  10351 WAT       -37.1820  -74.1660   -2.0830 O         1 <0>         0.0000
  10352 WAT       -37.1820  -74.1660   -1.8330 O         1 <0>         0.0000
  10353 WAT       -37.1820  -74.1660   -1.5830 O         1 <0>         0.0000
  10354 WAT       -37.1820  -74.1660   -1.3330 O         1 <0>         0.0000
  10355 WAT       -37.1820  -74.1660   -1.0830 O         1 <0>         0.0000
  10356 WAT       -37.1820  -74.1660   -0.8330 O         1 <0>         0.0000
  10357 WAT       -37.1820  -74.1660   -0.5830 O         1 <0>         0.0000
  10358 WAT       -37.1820  -74.1660   -0.3330 O         1 <0>         0.0000
  10359 WAT       -37.1820  -74.1660   -0.0830 O         1 <0>         0.0000
  10360 WAT       -37.1820  -73.9160   -9.8330 O         1 <0>         0.0000
  10361 WAT       -37.1820  -73.9160   -9.5830 O         1 <0>         0.0000
  10362 WAT       -37.1820  -73.9160   -9.3330 O         1 <0>         0.0000
  10363 WAT       -37.1820  -73.9160   -9.0830 O         1 <0>         0.0000
  10364 WAT       -37.1820  -73.9160   -8.8330 O         1 <0>         0.0000
  10365 WAT       -37.1820  -73.9160   -8.5830 O         1 <0>         0.0000
  10366 WAT       -37.1820  -73.9160   -8.3330 O         1 <0>         0.0000
  10367 WAT       -37.1820  -73.9160   -8.0830 O         1 <0>         0.0000
  10368 WAT       -37.1820  -73.9160   -7.8330 O         1 <0>         0.0000
  10369 WAT       -37.1820  -73.9160   -7.5830 O         1 <0>         0.0000
  10370 WAT       -37.1820  -73.9160   -7.3330 O         1 <0>         0.0000
  10371 WAT       -37.1820  -73.9160   -7.0830 O         1 <0>         0.0000
  10372 WAT       -37.1820  -73.9160   -6.8330 O         1 <0>         0.0000
  10373 WAT       -37.1820  -73.9160   -6.5830 O         1 <0>         0.0003
  10374 WAT       -37.1820  -73.9160   -6.3330 O         1 <0>         0.0015
  10375 WAT       -37.1820  -73.9160   -6.0830 O         1 <0>         0.0036
  10376 WAT       -37.1820  -73.9160   -5.8330 O         1 <0>         0.0053
  10377 WAT       -37.1820  -73.9160   -5.5830 O         1 <0>         0.0054
  10378 WAT       -37.1820  -73.9160   -5.3330 O         1 <0>         0.0043
  10379 WAT       -37.1820  -73.9160   -5.0830 O         1 <0>         0.0031
  10380 WAT       -37.1820  -73.9160   -4.8330 O         1 <0>         0.0024
  10381 WAT       -37.1820  -73.9160   -4.5830 O         1 <0>         0.0018
  10382 WAT       -37.1820  -73.9160   -4.3330 O         1 <0>         0.0012
  10383 WAT       -37.1820  -73.9160   -4.0830 O         1 <0>         0.0006
  10384 WAT       -37.1820  -73.9160   -3.8330 O         1 <0>         0.0002
  10385 WAT       -37.1820  -73.9160   -3.5830 O         1 <0>         0.0001
  10386 WAT       -37.1820  -73.9160   -3.3330 O         1 <0>         0.0000
  10387 WAT       -37.1820  -73.9160   -3.0830 O         1 <0>         0.0000
  10388 WAT       -37.1820  -73.9160   -2.8330 O         1 <0>         0.0000
  10389 WAT       -37.1820  -73.9160   -2.5830 O         1 <0>         0.0000
  10390 WAT       -37.1820  -73.9160   -2.3330 O         1 <0>         0.0000
  10391 WAT       -37.1820  -73.9160   -2.0830 O         1 <0>         0.0000
  10392 WAT       -37.1820  -73.9160   -1.8330 O         1 <0>         0.0000
  10393 WAT       -37.1820  -73.9160   -1.5830 O         1 <0>         0.0000
  10394 WAT       -37.1820  -73.9160   -1.3330 O         1 <0>         0.0000
  10395 WAT       -37.1820  -73.9160   -1.0830 O         1 <0>         0.0000
  10396 WAT       -37.1820  -73.9160   -0.8330 O         1 <0>         0.0000
  10397 WAT       -37.1820  -73.9160   -0.5830 O         1 <0>         0.0000
  10398 WAT       -37.1820  -73.9160   -0.3330 O         1 <0>         0.0000
  10399 WAT       -37.1820  -73.9160   -0.0830 O         1 <0>         0.0000
  10400 WAT       -37.1820  -73.6660   -9.8330 O         1 <0>         0.0000
  10401 WAT       -37.1820  -73.6660   -9.5830 O         1 <0>         0.0000
  10402 WAT       -37.1820  -73.6660   -9.3330 O         1 <0>         0.0000
  10403 WAT       -37.1820  -73.6660   -9.0830 O         1 <0>         0.0000
  10404 WAT       -37.1820  -73.6660   -8.8330 O         1 <0>         0.0000
  10405 WAT       -37.1820  -73.6660   -8.5830 O         1 <0>         0.0000
  10406 WAT       -37.1820  -73.6660   -8.3330 O         1 <0>         0.0000
  10407 WAT       -37.1820  -73.6660   -8.0830 O         1 <0>         0.0000
  10408 WAT       -37.1820  -73.6660   -7.8330 O         1 <0>         0.0000
  10409 WAT       -37.1820  -73.6660   -7.5830 O         1 <0>         0.0000
  10410 WAT       -37.1820  -73.6660   -7.3330 O         1 <0>         0.0000
  10411 WAT       -37.1820  -73.6660   -7.0830 O         1 <0>         0.0000
  10412 WAT       -37.1820  -73.6660   -6.8330 O         1 <0>         0.0000
  10413 WAT       -37.1820  -73.6660   -6.5830 O         1 <0>         0.0005
  10414 WAT       -37.1820  -73.6660   -6.3330 O         1 <0>         0.0020
  10415 WAT       -37.1820  -73.6660   -6.0830 O         1 <0>         0.0047
  10416 WAT       -37.1820  -73.6660   -5.8330 O         1 <0>         0.0067
  10417 WAT       -37.1820  -73.6660   -5.5830 O         1 <0>         0.0064
  10418 WAT       -37.1820  -73.6660   -5.3330 O         1 <0>         0.0044
  10419 WAT       -37.1820  -73.6660   -5.0830 O         1 <0>         0.0024
  10420 WAT       -37.1820  -73.6660   -4.8330 O         1 <0>         0.0014
  10421 WAT       -37.1820  -73.6660   -4.5830 O         1 <0>         0.0008
  10422 WAT       -37.1820  -73.6660   -4.3330 O         1 <0>         0.0005
  10423 WAT       -37.1820  -73.6660   -4.0830 O         1 <0>         0.0002
  10424 WAT       -37.1820  -73.6660   -3.8330 O         1 <0>         0.0001
  10425 WAT       -37.1820  -73.6660   -3.5830 O         1 <0>         0.0000
  10426 WAT       -37.1820  -73.6660   -3.3330 O         1 <0>         0.0000
  10427 WAT       -37.1820  -73.6660   -3.0830 O         1 <0>         0.0000
  10428 WAT       -37.1820  -73.6660   -2.8330 O         1 <0>         0.0000
  10429 WAT       -37.1820  -73.6660   -2.5830 O         1 <0>         0.0000
  10430 WAT       -37.1820  -73.6660   -2.3330 O         1 <0>         0.0000
  10431 WAT       -37.1820  -73.6660   -2.0830 O         1 <0>         0.0000
  10432 WAT       -37.1820  -73.6660   -1.8330 O         1 <0>         0.0000
  10433 WAT       -37.1820  -73.6660   -1.5830 O         1 <0>         0.0000
  10434 WAT       -37.1820  -73.6660   -1.3330 O         1 <0>         0.0000
  10435 WAT       -37.1820  -73.6660   -1.0830 O         1 <0>         0.0000
  10436 WAT       -37.1820  -73.6660   -0.8330 O         1 <0>         0.0000
  10437 WAT       -37.1820  -73.6660   -0.5830 O         1 <0>         0.0000
  10438 WAT       -37.1820  -73.6660   -0.3330 O         1 <0>         0.0000
  10439 WAT       -37.1820  -73.6660   -0.0830 O         1 <0>         0.0000
  10440 WAT       -37.1820  -73.4160   -9.8330 O         1 <0>         0.0000
  10441 WAT       -37.1820  -73.4160   -9.5830 O         1 <0>         0.0000
  10442 WAT       -37.1820  -73.4160   -9.3330 O         1 <0>         0.0000
  10443 WAT       -37.1820  -73.4160   -9.0830 O         1 <0>         0.0000
  10444 WAT       -37.1820  -73.4160   -8.8330 O         1 <0>         0.0000
  10445 WAT       -37.1820  -73.4160   -8.5830 O         1 <0>         0.0000
  10446 WAT       -37.1820  -73.4160   -8.3330 O         1 <0>         0.0000
  10447 WAT       -37.1820  -73.4160   -8.0830 O         1 <0>         0.0000
  10448 WAT       -37.1820  -73.4160   -7.8330 O         1 <0>         0.0000
  10449 WAT       -37.1820  -73.4160   -7.5830 O         1 <0>         0.0000
  10450 WAT       -37.1820  -73.4160   -7.3330 O         1 <0>         0.0000
  10451 WAT       -37.1820  -73.4160   -7.0830 O         1 <0>         0.0000
  10452 WAT       -37.1820  -73.4160   -6.8330 O         1 <0>         0.0000
  10453 WAT       -37.1820  -73.4160   -6.5830 O         1 <0>         0.0004
  10454 WAT       -37.1820  -73.4160   -6.3330 O         1 <0>         0.0017
  10455 WAT       -37.1820  -73.4160   -6.0830 O         1 <0>         0.0040
  10456 WAT       -37.1820  -73.4160   -5.8330 O         1 <0>         0.0056
  10457 WAT       -37.1820  -73.4160   -5.5830 O         1 <0>         0.0052
  10458 WAT       -37.1820  -73.4160   -5.3330 O         1 <0>         0.0033
  10459 WAT       -37.1820  -73.4160   -5.0830 O         1 <0>         0.0015
  10460 WAT       -37.1820  -73.4160   -4.8330 O         1 <0>         0.0006
  10461 WAT       -37.1820  -73.4160   -4.5830 O         1 <0>         0.0002
  10462 WAT       -37.1820  -73.4160   -4.3330 O         1 <0>         0.0001
  10463 WAT       -37.1820  -73.4160   -4.0830 O         1 <0>         0.0001
  10464 WAT       -37.1820  -73.4160   -3.8330 O         1 <0>         0.0000
  10465 WAT       -37.1820  -73.4160   -3.5830 O         1 <0>         0.0000
  10466 WAT       -37.1820  -73.4160   -3.3330 O         1 <0>         0.0000
  10467 WAT       -37.1820  -73.4160   -3.0830 O         1 <0>         0.0000
  10468 WAT       -37.1820  -73.4160   -2.8330 O         1 <0>         0.0000
  10469 WAT       -37.1820  -73.4160   -2.5830 O         1 <0>         0.0000
  10470 WAT       -37.1820  -73.4160   -2.3330 O         1 <0>         0.0000
  10471 WAT       -37.1820  -73.4160   -2.0830 O         1 <0>         0.0000
  10472 WAT       -37.1820  -73.4160   -1.8330 O         1 <0>         0.0000
  10473 WAT       -37.1820  -73.4160   -1.5830 O         1 <0>         0.0000
  10474 WAT       -37.1820  -73.4160   -1.3330 O         1 <0>         0.0000
  10475 WAT       -37.1820  -73.4160   -1.0830 O         1 <0>         0.0000
  10476 WAT       -37.1820  -73.4160   -0.8330 O         1 <0>         0.0000
  10477 WAT       -37.1820  -73.4160   -0.5830 O         1 <0>         0.0000
  10478 WAT       -37.1820  -73.4160   -0.3330 O         1 <0>         0.0000
  10479 WAT       -37.1820  -73.4160   -0.0830 O         1 <0>         0.0000
  10480 WAT       -37.1820  -73.1660   -9.8330 O         1 <0>         0.0000
  10481 WAT       -37.1820  -73.1660   -9.5830 O         1 <0>         0.0000
  10482 WAT       -37.1820  -73.1660   -9.3330 O         1 <0>         0.0000
  10483 WAT       -37.1820  -73.1660   -9.0830 O         1 <0>         0.0000
  10484 WAT       -37.1820  -73.1660   -8.8330 O         1 <0>         0.0000
  10485 WAT       -37.1820  -73.1660   -8.5830 O         1 <0>         0.0000
  10486 WAT       -37.1820  -73.1660   -8.3330 O         1 <0>         0.0000
  10487 WAT       -37.1820  -73.1660   -8.0830 O         1 <0>         0.0000
  10488 WAT       -37.1820  -73.1660   -7.8330 O         1 <0>         0.0000
  10489 WAT       -37.1820  -73.1660   -7.5830 O         1 <0>         0.0000
  10490 WAT       -37.1820  -73.1660   -7.3330 O         1 <0>         0.0000
  10491 WAT       -37.1820  -73.1660   -7.0830 O         1 <0>         0.0000
  10492 WAT       -37.1820  -73.1660   -6.8330 O         1 <0>         0.0000
  10493 WAT       -37.1820  -73.1660   -6.5830 O         1 <0>         0.0002
  10494 WAT       -37.1820  -73.1660   -6.3330 O         1 <0>         0.0009
  10495 WAT       -37.1820  -73.1660   -6.0830 O         1 <0>         0.0022
  10496 WAT       -37.1820  -73.1660   -5.8330 O         1 <0>         0.0031
  10497 WAT       -37.1820  -73.1660   -5.5830 O         1 <0>         0.0029
  10498 WAT       -37.1820  -73.1660   -5.3330 O         1 <0>         0.0017
  10499 WAT       -37.1820  -73.1660   -5.0830 O         1 <0>         0.0007
  10500 WAT       -37.1820  -73.1660   -4.8330 O         1 <0>         0.0002
  10501 WAT       -37.1820  -73.1660   -4.5830 O         1 <0>         0.0000
  10502 WAT       -37.1820  -73.1660   -4.3330 O         1 <0>         0.0000
  10503 WAT       -37.1820  -73.1660   -4.0830 O         1 <0>         0.0000
  10504 WAT       -37.1820  -73.1660   -3.8330 O         1 <0>         0.0000
  10505 WAT       -37.1820  -73.1660   -3.5830 O         1 <0>         0.0000
  10506 WAT       -37.1820  -73.1660   -3.3330 O         1 <0>         0.0000
  10507 WAT       -37.1820  -73.1660   -3.0830 O         1 <0>         0.0000
  10508 WAT       -37.1820  -73.1660   -2.8330 O         1 <0>         0.0000
  10509 WAT       -37.1820  -73.1660   -2.5830 O         1 <0>         0.0000
  10510 WAT       -37.1820  -73.1660   -2.3330 O         1 <0>         0.0000
  10511 WAT       -37.1820  -73.1660   -2.0830 O         1 <0>         0.0000
  10512 WAT       -37.1820  -73.1660   -1.8330 O         1 <0>         0.0000
  10513 WAT       -37.1820  -73.1660   -1.5830 O         1 <0>         0.0000
  10514 WAT       -37.1820  -73.1660   -1.3330 O         1 <0>         0.0000
  10515 WAT       -37.1820  -73.1660   -1.0830 O         1 <0>         0.0000
  10516 WAT       -37.1820  -73.1660   -0.8330 O         1 <0>         0.0000
  10517 WAT       -37.1820  -73.1660   -0.5830 O         1 <0>         0.0000
  10518 WAT       -37.1820  -73.1660   -0.3330 O         1 <0>         0.0000
  10519 WAT       -37.1820  -73.1660   -0.0830 O         1 <0>         0.0000
  10520 WAT       -37.1820  -72.9160   -9.8330 O         1 <0>         0.0000
  10521 WAT       -37.1820  -72.9160   -9.5830 O         1 <0>         0.0000
  10522 WAT       -37.1820  -72.9160   -9.3330 O         1 <0>         0.0000
  10523 WAT       -37.1820  -72.9160   -9.0830 O         1 <0>         0.0000
  10524 WAT       -37.1820  -72.9160   -8.8330 O         1 <0>         0.0000
  10525 WAT       -37.1820  -72.9160   -8.5830 O         1 <0>         0.0000
  10526 WAT       -37.1820  -72.9160   -8.3330 O         1 <0>         0.0000
  10527 WAT       -37.1820  -72.9160   -8.0830 O         1 <0>         0.0000
  10528 WAT       -37.1820  -72.9160   -7.8330 O         1 <0>         0.0000
  10529 WAT       -37.1820  -72.9160   -7.5830 O         1 <0>         0.0000
  10530 WAT       -37.1820  -72.9160   -7.3330 O         1 <0>         0.0000
  10531 WAT       -37.1820  -72.9160   -7.0830 O         1 <0>         0.0000
  10532 WAT       -37.1820  -72.9160   -6.8330 O         1 <0>         0.0000
  10533 WAT       -37.1820  -72.9160   -6.5830 O         1 <0>         0.0000
  10534 WAT       -37.1820  -72.9160   -6.3330 O         1 <0>         0.0002
  10535 WAT       -37.1820  -72.9160   -6.0830 O         1 <0>         0.0007
  10536 WAT       -37.1820  -72.9160   -5.8330 O         1 <0>         0.0011
  10537 WAT       -37.1820  -72.9160   -5.5830 O         1 <0>         0.0010
  10538 WAT       -37.1820  -72.9160   -5.3330 O         1 <0>         0.0006
  10539 WAT       -37.1820  -72.9160   -5.0830 O         1 <0>         0.0002
  10540 WAT       -37.1820  -72.9160   -4.8330 O         1 <0>         0.0000
  10541 WAT       -37.1820  -72.9160   -4.5830 O         1 <0>         0.0000
  10542 WAT       -37.1820  -72.9160   -4.3330 O         1 <0>         0.0000
  10543 WAT       -37.1820  -72.9160   -4.0830 O         1 <0>         0.0000
  10544 WAT       -37.1820  -72.9160   -3.8330 O         1 <0>         0.0000
  10545 WAT       -37.1820  -72.9160   -3.5830 O         1 <0>         0.0000
  10546 WAT       -37.1820  -72.9160   -3.3330 O         1 <0>         0.0000
  10547 WAT       -37.1820  -72.9160   -3.0830 O         1 <0>         0.0000
  10548 WAT       -37.1820  -72.9160   -2.8330 O         1 <0>         0.0000
  10549 WAT       -37.1820  -72.9160   -2.5830 O         1 <0>         0.0000
  10550 WAT       -37.1820  -72.9160   -2.3330 O         1 <0>         0.0000
  10551 WAT       -37.1820  -72.9160   -2.0830 O         1 <0>         0.0000
  10552 WAT       -37.1820  -72.9160   -1.8330 O         1 <0>         0.0000
  10553 WAT       -37.1820  -72.9160   -1.5830 O         1 <0>         0.0000
  10554 WAT       -37.1820  -72.9160   -1.3330 O         1 <0>         0.0000
  10555 WAT       -37.1820  -72.9160   -1.0830 O         1 <0>         0.0000
  10556 WAT       -37.1820  -72.9160   -0.8330 O         1 <0>         0.0000
  10557 WAT       -37.1820  -72.9160   -0.5830 O         1 <0>         0.0000
  10558 WAT       -37.1820  -72.9160   -0.3330 O         1 <0>         0.0000
  10559 WAT       -37.1820  -72.9160   -0.0830 O         1 <0>         0.0000
  10560 WAT       -37.1820  -72.6660   -9.8330 O         1 <0>         0.0000
  10561 WAT       -37.1820  -72.6660   -9.5830 O         1 <0>         0.0000
  10562 WAT       -37.1820  -72.6660   -9.3330 O         1 <0>         0.0000
  10563 WAT       -37.1820  -72.6660   -9.0830 O         1 <0>         0.0000
  10564 WAT       -37.1820  -72.6660   -8.8330 O         1 <0>         0.0000
  10565 WAT       -37.1820  -72.6660   -8.5830 O         1 <0>         0.0000
  10566 WAT       -37.1820  -72.6660   -8.3330 O         1 <0>         0.0000
  10567 WAT       -37.1820  -72.6660   -8.0830 O         1 <0>         0.0000
  10568 WAT       -37.1820  -72.6660   -7.8330 O         1 <0>         0.0000
  10569 WAT       -37.1820  -72.6660   -7.5830 O         1 <0>         0.0000
  10570 WAT       -37.1820  -72.6660   -7.3330 O         1 <0>         0.0000
  10571 WAT       -37.1820  -72.6660   -7.0830 O         1 <0>         0.0000
  10572 WAT       -37.1820  -72.6660   -6.8330 O         1 <0>         0.0000
  10573 WAT       -37.1820  -72.6660   -6.5830 O         1 <0>         0.0000
  10574 WAT       -37.1820  -72.6660   -6.3330 O         1 <0>         0.0000
  10575 WAT       -37.1820  -72.6660   -6.0830 O         1 <0>         0.0001
  10576 WAT       -37.1820  -72.6660   -5.8330 O         1 <0>         0.0002
  10577 WAT       -37.1820  -72.6660   -5.5830 O         1 <0>         0.0002
  10578 WAT       -37.1820  -72.6660   -5.3330 O         1 <0>         0.0001
  10579 WAT       -37.1820  -72.6660   -5.0830 O         1 <0>         0.0000
  10580 WAT       -37.1820  -72.6660   -4.8330 O         1 <0>         0.0000
  10581 WAT       -37.1820  -72.6660   -4.5830 O         1 <0>         0.0000
  10582 WAT       -37.1820  -72.6660   -4.3330 O         1 <0>         0.0000
  10583 WAT       -37.1820  -72.6660   -4.0830 O         1 <0>         0.0000
  10584 WAT       -37.1820  -72.6660   -3.8330 O         1 <0>         0.0000
  10585 WAT       -37.1820  -72.6660   -3.5830 O         1 <0>         0.0000
  10586 WAT       -37.1820  -72.6660   -3.3330 O         1 <0>         0.0000
  10587 WAT       -37.1820  -72.6660   -3.0830 O         1 <0>         0.0000
  10588 WAT       -37.1820  -72.6660   -2.8330 O         1 <0>         0.0000
  10589 WAT       -37.1820  -72.6660   -2.5830 O         1 <0>         0.0000
  10590 WAT       -37.1820  -72.6660   -2.3330 O         1 <0>         0.0000
  10591 WAT       -37.1820  -72.6660   -2.0830 O         1 <0>         0.0000
  10592 WAT       -37.1820  -72.6660   -1.8330 O         1 <0>         0.0000
  10593 WAT       -37.1820  -72.6660   -1.5830 O         1 <0>         0.0000
  10594 WAT       -37.1820  -72.6660   -1.3330 O         1 <0>         0.0000
  10595 WAT       -37.1820  -72.6660   -1.0830 O         1 <0>         0.0000
  10596 WAT       -37.1820  -72.6660   -0.8330 O         1 <0>         0.0000
  10597 WAT       -37.1820  -72.6660   -0.5830 O         1 <0>         0.0000
  10598 WAT       -37.1820  -72.6660   -0.3330 O         1 <0>         0.0000
  10599 WAT       -37.1820  -72.6660   -0.0830 O         1 <0>         0.0000
  10600 WAT       -37.1820  -72.4160   -9.8330 O         1 <0>         0.0000
  10601 WAT       -37.1820  -72.4160   -9.5830 O         1 <0>         0.0000
  10602 WAT       -37.1820  -72.4160   -9.3330 O         1 <0>         0.0000
  10603 WAT       -37.1820  -72.4160   -9.0830 O         1 <0>         0.0000
  10604 WAT       -37.1820  -72.4160   -8.8330 O         1 <0>         0.0000
  10605 WAT       -37.1820  -72.4160   -8.5830 O         1 <0>         0.0000
  10606 WAT       -37.1820  -72.4160   -8.3330 O         1 <0>         0.0000
  10607 WAT       -37.1820  -72.4160   -8.0830 O         1 <0>         0.0000
  10608 WAT       -37.1820  -72.4160   -7.8330 O         1 <0>         0.0000
  10609 WAT       -37.1820  -72.4160   -7.5830 O         1 <0>         0.0000
  10610 WAT       -37.1820  -72.4160   -7.3330 O         1 <0>         0.0000
  10611 WAT       -37.1820  -72.4160   -7.0830 O         1 <0>         0.0000
  10612 WAT       -37.1820  -72.4160   -6.8330 O         1 <0>         0.0000
  10613 WAT       -37.1820  -72.4160   -6.5830 O         1 <0>         0.0000
  10614 WAT       -37.1820  -72.4160   -6.3330 O         1 <0>         0.0000
  10615 WAT       -37.1820  -72.4160   -6.0830 O         1 <0>         0.0000
  10616 WAT       -37.1820  -72.4160   -5.8330 O         1 <0>         0.0000
  10617 WAT       -37.1820  -72.4160   -5.5830 O         1 <0>         0.0000
  10618 WAT       -37.1820  -72.4160   -5.3330 O         1 <0>         0.0000
  10619 WAT       -37.1820  -72.4160   -5.0830 O         1 <0>         0.0000
  10620 WAT       -37.1820  -72.4160   -4.8330 O         1 <0>         0.0000
  10621 WAT       -37.1820  -72.4160   -4.5830 O         1 <0>         0.0000
  10622 WAT       -37.1820  -72.4160   -4.3330 O         1 <0>         0.0000
  10623 WAT       -37.1820  -72.4160   -4.0830 O         1 <0>         0.0000
  10624 WAT       -37.1820  -72.4160   -3.8330 O         1 <0>         0.0000
  10625 WAT       -37.1820  -72.4160   -3.5830 O         1 <0>         0.0000
  10626 WAT       -37.1820  -72.4160   -3.3330 O         1 <0>         0.0000
  10627 WAT       -37.1820  -72.4160   -3.0830 O         1 <0>         0.0000
  10628 WAT       -37.1820  -72.4160   -2.8330 O         1 <0>         0.0000
  10629 WAT       -37.1820  -72.4160   -2.5830 O         1 <0>         0.0000
  10630 WAT       -37.1820  -72.4160   -2.3330 O         1 <0>         0.0000
  10631 WAT       -37.1820  -72.4160   -2.0830 O         1 <0>         0.0000
  10632 WAT       -37.1820  -72.4160   -1.8330 O         1 <0>         0.0000
  10633 WAT       -37.1820  -72.4160   -1.5830 O         1 <0>         0.0000
  10634 WAT       -37.1820  -72.4160   -1.3330 O         1 <0>         0.0000
  10635 WAT       -37.1820  -72.4160   -1.0830 O         1 <0>         0.0000
  10636 WAT       -37.1820  -72.4160   -0.8330 O         1 <0>         0.0000
  10637 WAT       -37.1820  -72.4160   -0.5830 O         1 <0>         0.0000
  10638 WAT       -37.1820  -72.4160   -0.3330 O         1 <0>         0.0000
  10639 WAT       -37.1820  -72.4160   -0.0830 O         1 <0>         0.0000
  10640 WAT       -37.1820  -72.1660   -9.8330 O         1 <0>         0.0000
  10641 WAT       -37.1820  -72.1660   -9.5830 O         1 <0>         0.0000
  10642 WAT       -37.1820  -72.1660   -9.3330 O         1 <0>         0.0000
  10643 WAT       -37.1820  -72.1660   -9.0830 O         1 <0>         0.0000
  10644 WAT       -37.1820  -72.1660   -8.8330 O         1 <0>         0.0000
  10645 WAT       -37.1820  -72.1660   -8.5830 O         1 <0>         0.0000
  10646 WAT       -37.1820  -72.1660   -8.3330 O         1 <0>         0.0000
  10647 WAT       -37.1820  -72.1660   -8.0830 O         1 <0>         0.0000
  10648 WAT       -37.1820  -72.1660   -7.8330 O         1 <0>         0.0000
  10649 WAT       -37.1820  -72.1660   -7.5830 O         1 <0>         0.0000
  10650 WAT       -37.1820  -72.1660   -7.3330 O         1 <0>         0.0000
  10651 WAT       -37.1820  -72.1660   -7.0830 O         1 <0>         0.0000
  10652 WAT       -37.1820  -72.1660   -6.8330 O         1 <0>         0.0000
  10653 WAT       -37.1820  -72.1660   -6.5830 O         1 <0>         0.0000
  10654 WAT       -37.1820  -72.1660   -6.3330 O         1 <0>         0.0000
  10655 WAT       -37.1820  -72.1660   -6.0830 O         1 <0>         0.0000
  10656 WAT       -37.1820  -72.1660   -5.8330 O         1 <0>         0.0000
  10657 WAT       -37.1820  -72.1660   -5.5830 O         1 <0>         0.0000
  10658 WAT       -37.1820  -72.1660   -5.3330 O         1 <0>         0.0000
  10659 WAT       -37.1820  -72.1660   -5.0830 O         1 <0>         0.0000
  10660 WAT       -37.1820  -72.1660   -4.8330 O         1 <0>         0.0000
  10661 WAT       -37.1820  -72.1660   -4.5830 O         1 <0>         0.0000
  10662 WAT       -37.1820  -72.1660   -4.3330 O         1 <0>         0.0000
  10663 WAT       -37.1820  -72.1660   -4.0830 O         1 <0>         0.0000
  10664 WAT       -37.1820  -72.1660   -3.8330 O         1 <0>         0.0000
  10665 WAT       -37.1820  -72.1660   -3.5830 O         1 <0>         0.0000
  10666 WAT       -37.1820  -72.1660   -3.3330 O         1 <0>         0.0000
  10667 WAT       -37.1820  -72.1660   -3.0830 O         1 <0>         0.0000
  10668 WAT       -37.1820  -72.1660   -2.8330 O         1 <0>         0.0000
  10669 WAT       -37.1820  -72.1660   -2.5830 O         1 <0>         0.0000
  10670 WAT       -37.1820  -72.1660   -2.3330 O         1 <0>         0.0000
  10671 WAT       -37.1820  -72.1660   -2.0830 O         1 <0>         0.0000
  10672 WAT       -37.1820  -72.1660   -1.8330 O         1 <0>         0.0000
  10673 WAT       -37.1820  -72.1660   -1.5830 O         1 <0>         0.0000
  10674 WAT       -37.1820  -72.1660   -1.3330 O         1 <0>         0.0000
  10675 WAT       -37.1820  -72.1660   -1.0830 O         1 <0>         0.0000
  10676 WAT       -37.1820  -72.1660   -0.8330 O         1 <0>         0.0000
  10677 WAT       -37.1820  -72.1660   -0.5830 O         1 <0>         0.0000
  10678 WAT       -37.1820  -72.1660   -0.3330 O         1 <0>         0.0000
  10679 WAT       -37.1820  -72.1660   -0.0830 O         1 <0>         0.0000
  10680 WAT       -37.1820  -71.9160   -9.8330 O         1 <0>         0.0000
  10681 WAT       -37.1820  -71.9160   -9.5830 O         1 <0>         0.0000
  10682 WAT       -37.1820  -71.9160   -9.3330 O         1 <0>         0.0000
  10683 WAT       -37.1820  -71.9160   -9.0830 O         1 <0>         0.0000
  10684 WAT       -37.1820  -71.9160   -8.8330 O         1 <0>         0.0000
  10685 WAT       -37.1820  -71.9160   -8.5830 O         1 <0>         0.0000
  10686 WAT       -37.1820  -71.9160   -8.3330 O         1 <0>         0.0000
  10687 WAT       -37.1820  -71.9160   -8.0830 O         1 <0>         0.0000
  10688 WAT       -37.1820  -71.9160   -7.8330 O         1 <0>         0.0000
  10689 WAT       -37.1820  -71.9160   -7.5830 O         1 <0>         0.0000
  10690 WAT       -37.1820  -71.9160   -7.3330 O         1 <0>         0.0000
  10691 WAT       -37.1820  -71.9160   -7.0830 O         1 <0>         0.0000
  10692 WAT       -37.1820  -71.9160   -6.8330 O         1 <0>         0.0000
  10693 WAT       -37.1820  -71.9160   -6.5830 O         1 <0>         0.0000
  10694 WAT       -37.1820  -71.9160   -6.3330 O         1 <0>         0.0000
  10695 WAT       -37.1820  -71.9160   -6.0830 O         1 <0>         0.0000
  10696 WAT       -37.1820  -71.9160   -5.8330 O         1 <0>         0.0000
  10697 WAT       -37.1820  -71.9160   -5.5830 O         1 <0>         0.0000
  10698 WAT       -37.1820  -71.9160   -5.3330 O         1 <0>         0.0000
  10699 WAT       -37.1820  -71.9160   -5.0830 O         1 <0>         0.0000
  10700 WAT       -37.1820  -71.9160   -4.8330 O         1 <0>         0.0000
  10701 WAT       -37.1820  -71.9160   -4.5830 O         1 <0>         0.0000
  10702 WAT       -37.1820  -71.9160   -4.3330 O         1 <0>         0.0000
  10703 WAT       -37.1820  -71.9160   -4.0830 O         1 <0>         0.0000
  10704 WAT       -37.1820  -71.9160   -3.8330 O         1 <0>         0.0000
  10705 WAT       -37.1820  -71.9160   -3.5830 O         1 <0>         0.0000
  10706 WAT       -37.1820  -71.9160   -3.3330 O         1 <0>         0.0000
  10707 WAT       -37.1820  -71.9160   -3.0830 O         1 <0>         0.0000
  10708 WAT       -37.1820  -71.9160   -2.8330 O         1 <0>         0.0000
  10709 WAT       -37.1820  -71.9160   -2.5830 O         1 <0>         0.0000
  10710 WAT       -37.1820  -71.9160   -2.3330 O         1 <0>         0.0000
  10711 WAT       -37.1820  -71.9160   -2.0830 O         1 <0>         0.0000
  10712 WAT       -37.1820  -71.9160   -1.8330 O         1 <0>         0.0000
  10713 WAT       -37.1820  -71.9160   -1.5830 O         1 <0>         0.0000
  10714 WAT       -37.1820  -71.9160   -1.3330 O         1 <0>         0.0000
  10715 WAT       -37.1820  -71.9160   -1.0830 O         1 <0>         0.0000
  10716 WAT       -37.1820  -71.9160   -0.8330 O         1 <0>         0.0000
  10717 WAT       -37.1820  -71.9160   -0.5830 O         1 <0>         0.0000
  10718 WAT       -37.1820  -71.9160   -0.3330 O         1 <0>         0.0000
  10719 WAT       -37.1820  -71.9160   -0.0830 O         1 <0>         0.0000
  10720 WAT       -37.1820  -71.6660   -9.8330 O         1 <0>         0.0000
  10721 WAT       -37.1820  -71.6660   -9.5830 O         1 <0>         0.0000
  10722 WAT       -37.1820  -71.6660   -9.3330 O         1 <0>         0.0000
  10723 WAT       -37.1820  -71.6660   -9.0830 O         1 <0>         0.0000
  10724 WAT       -37.1820  -71.6660   -8.8330 O         1 <0>         0.0000
  10725 WAT       -37.1820  -71.6660   -8.5830 O         1 <0>         0.0000
  10726 WAT       -37.1820  -71.6660   -8.3330 O         1 <0>         0.0000
  10727 WAT       -37.1820  -71.6660   -8.0830 O         1 <0>         0.0000
  10728 WAT       -37.1820  -71.6660   -7.8330 O         1 <0>         0.0000
  10729 WAT       -37.1820  -71.6660   -7.5830 O         1 <0>         0.0000
  10730 WAT       -37.1820  -71.6660   -7.3330 O         1 <0>         0.0000
  10731 WAT       -37.1820  -71.6660   -7.0830 O         1 <0>         0.0000
  10732 WAT       -37.1820  -71.6660   -6.8330 O         1 <0>         0.0000
  10733 WAT       -37.1820  -71.6660   -6.5830 O         1 <0>         0.0000
  10734 WAT       -37.1820  -71.6660   -6.3330 O         1 <0>         0.0000
  10735 WAT       -37.1820  -71.6660   -6.0830 O         1 <0>         0.0000
  10736 WAT       -37.1820  -71.6660   -5.8330 O         1 <0>         0.0000
  10737 WAT       -37.1820  -71.6660   -5.5830 O         1 <0>         0.0000
  10738 WAT       -37.1820  -71.6660   -5.3330 O         1 <0>         0.0000
  10739 WAT       -37.1820  -71.6660   -5.0830 O         1 <0>         0.0000
  10740 WAT       -37.1820  -71.6660   -4.8330 O         1 <0>         0.0000
  10741 WAT       -37.1820  -71.6660   -4.5830 O         1 <0>         0.0000
  10742 WAT       -37.1820  -71.6660   -4.3330 O         1 <0>         0.0000
  10743 WAT       -37.1820  -71.6660   -4.0830 O         1 <0>         0.0000
  10744 WAT       -37.1820  -71.6660   -3.8330 O         1 <0>         0.0000
  10745 WAT       -37.1820  -71.6660   -3.5830 O         1 <0>         0.0000
  10746 WAT       -37.1820  -71.6660   -3.3330 O         1 <0>         0.0000
  10747 WAT       -37.1820  -71.6660   -3.0830 O         1 <0>         0.0000
  10748 WAT       -37.1820  -71.6660   -2.8330 O         1 <0>         0.0000
  10749 WAT       -37.1820  -71.6660   -2.5830 O         1 <0>         0.0000
  10750 WAT       -37.1820  -71.6660   -2.3330 O         1 <0>         0.0000
  10751 WAT       -37.1820  -71.6660   -2.0830 O         1 <0>         0.0000
  10752 WAT       -37.1820  -71.6660   -1.8330 O         1 <0>         0.0000
  10753 WAT       -37.1820  -71.6660   -1.5830 O         1 <0>         0.0000
  10754 WAT       -37.1820  -71.6660   -1.3330 O         1 <0>         0.0000
  10755 WAT       -37.1820  -71.6660   -1.0830 O         1 <0>         0.0000
  10756 WAT       -37.1820  -71.6660   -0.8330 O         1 <0>         0.0000
  10757 WAT       -37.1820  -71.6660   -0.5830 O         1 <0>         0.0000
  10758 WAT       -37.1820  -71.6660   -0.3330 O         1 <0>         0.0000
  10759 WAT       -37.1820  -71.6660   -0.0830 O         1 <0>         0.0000
  10760 WAT       -37.1820  -71.4160   -9.8330 O         1 <0>         0.0000
  10761 WAT       -37.1820  -71.4160   -9.5830 O         1 <0>         0.0000
  10762 WAT       -37.1820  -71.4160   -9.3330 O         1 <0>         0.0000
  10763 WAT       -37.1820  -71.4160   -9.0830 O         1 <0>         0.0000
  10764 WAT       -37.1820  -71.4160   -8.8330 O         1 <0>         0.0000
  10765 WAT       -37.1820  -71.4160   -8.5830 O         1 <0>         0.0000
  10766 WAT       -37.1820  -71.4160   -8.3330 O         1 <0>         0.0000
  10767 WAT       -37.1820  -71.4160   -8.0830 O         1 <0>         0.0000
  10768 WAT       -37.1820  -71.4160   -7.8330 O         1 <0>         0.0000
  10769 WAT       -37.1820  -71.4160   -7.5830 O         1 <0>         0.0000
  10770 WAT       -37.1820  -71.4160   -7.3330 O         1 <0>         0.0000
  10771 WAT       -37.1820  -71.4160   -7.0830 O         1 <0>         0.0000
  10772 WAT       -37.1820  -71.4160   -6.8330 O         1 <0>         0.0000
  10773 WAT       -37.1820  -71.4160   -6.5830 O         1 <0>         0.0000
  10774 WAT       -37.1820  -71.4160   -6.3330 O         1 <0>         0.0000
  10775 WAT       -37.1820  -71.4160   -6.0830 O         1 <0>         0.0000
  10776 WAT       -37.1820  -71.4160   -5.8330 O         1 <0>         0.0000
  10777 WAT       -37.1820  -71.4160   -5.5830 O         1 <0>         0.0000
  10778 WAT       -37.1820  -71.4160   -5.3330 O         1 <0>         0.0000
  10779 WAT       -37.1820  -71.4160   -5.0830 O         1 <0>         0.0000
  10780 WAT       -37.1820  -71.4160   -4.8330 O         1 <0>         0.0000
  10781 WAT       -37.1820  -71.4160   -4.5830 O         1 <0>         0.0000
  10782 WAT       -37.1820  -71.4160   -4.3330 O         1 <0>         0.0000
  10783 WAT       -37.1820  -71.4160   -4.0830 O         1 <0>         0.0000
  10784 WAT       -37.1820  -71.4160   -3.8330 O         1 <0>         0.0000
  10785 WAT       -37.1820  -71.4160   -3.5830 O         1 <0>         0.0000
  10786 WAT       -37.1820  -71.4160   -3.3330 O         1 <0>         0.0000
  10787 WAT       -37.1820  -71.4160   -3.0830 O         1 <0>         0.0000
  10788 WAT       -37.1820  -71.4160   -2.8330 O         1 <0>         0.0000
  10789 WAT       -37.1820  -71.4160   -2.5830 O         1 <0>         0.0000
  10790 WAT       -37.1820  -71.4160   -2.3330 O         1 <0>         0.0000
  10791 WAT       -37.1820  -71.4160   -2.0830 O         1 <0>         0.0000
  10792 WAT       -37.1820  -71.4160   -1.8330 O         1 <0>         0.0000
  10793 WAT       -37.1820  -71.4160   -1.5830 O         1 <0>         0.0000
  10794 WAT       -37.1820  -71.4160   -1.3330 O         1 <0>         0.0000
  10795 WAT       -37.1820  -71.4160   -1.0830 O         1 <0>         0.0000
  10796 WAT       -37.1820  -71.4160   -0.8330 O         1 <0>         0.0000
  10797 WAT       -37.1820  -71.4160   -0.5830 O         1 <0>         0.0000
  10798 WAT       -37.1820  -71.4160   -0.3330 O         1 <0>         0.0000
  10799 WAT       -37.1820  -71.4160   -0.0830 O         1 <0>         0.0000
  10800 WAT       -37.1820  -71.1660   -9.8330 O         1 <0>         0.0000
  10801 WAT       -37.1820  -71.1660   -9.5830 O         1 <0>         0.0000
  10802 WAT       -37.1820  -71.1660   -9.3330 O         1 <0>         0.0000
  10803 WAT       -37.1820  -71.1660   -9.0830 O         1 <0>         0.0000
  10804 WAT       -37.1820  -71.1660   -8.8330 O         1 <0>         0.0000
  10805 WAT       -37.1820  -71.1660   -8.5830 O         1 <0>         0.0000
  10806 WAT       -37.1820  -71.1660   -8.3330 O         1 <0>         0.0000
  10807 WAT       -37.1820  -71.1660   -8.0830 O         1 <0>         0.0000
  10808 WAT       -37.1820  -71.1660   -7.8330 O         1 <0>         0.0000
  10809 WAT       -37.1820  -71.1660   -7.5830 O         1 <0>         0.0000
  10810 WAT       -37.1820  -71.1660   -7.3330 O         1 <0>         0.0000
  10811 WAT       -37.1820  -71.1660   -7.0830 O         1 <0>         0.0000
  10812 WAT       -37.1820  -71.1660   -6.8330 O         1 <0>         0.0000
  10813 WAT       -37.1820  -71.1660   -6.5830 O         1 <0>         0.0000
  10814 WAT       -37.1820  -71.1660   -6.3330 O         1 <0>         0.0000
  10815 WAT       -37.1820  -71.1660   -6.0830 O         1 <0>         0.0000
  10816 WAT       -37.1820  -71.1660   -5.8330 O         1 <0>         0.0000
  10817 WAT       -37.1820  -71.1660   -5.5830 O         1 <0>         0.0000
  10818 WAT       -37.1820  -71.1660   -5.3330 O         1 <0>         0.0000
  10819 WAT       -37.1820  -71.1660   -5.0830 O         1 <0>         0.0000
  10820 WAT       -37.1820  -71.1660   -4.8330 O         1 <0>         0.0000
  10821 WAT       -37.1820  -71.1660   -4.5830 O         1 <0>         0.0000
  10822 WAT       -37.1820  -71.1660   -4.3330 O         1 <0>         0.0000
  10823 WAT       -37.1820  -71.1660   -4.0830 O         1 <0>         0.0000
  10824 WAT       -37.1820  -71.1660   -3.8330 O         1 <0>         0.0000
  10825 WAT       -37.1820  -71.1660   -3.5830 O         1 <0>         0.0000
  10826 WAT       -37.1820  -71.1660   -3.3330 O         1 <0>         0.0000
  10827 WAT       -37.1820  -71.1660   -3.0830 O         1 <0>         0.0000
  10828 WAT       -37.1820  -71.1660   -2.8330 O         1 <0>         0.0000
  10829 WAT       -37.1820  -71.1660   -2.5830 O         1 <0>         0.0000
  10830 WAT       -37.1820  -71.1660   -2.3330 O         1 <0>         0.0000
  10831 WAT       -37.1820  -71.1660   -2.0830 O         1 <0>         0.0000
  10832 WAT       -37.1820  -71.1660   -1.8330 O         1 <0>         0.0000
  10833 WAT       -37.1820  -71.1660   -1.5830 O         1 <0>         0.0000
  10834 WAT       -37.1820  -71.1660   -1.3330 O         1 <0>         0.0000
  10835 WAT       -37.1820  -71.1660   -1.0830 O         1 <0>         0.0000
  10836 WAT       -37.1820  -71.1660   -0.8330 O         1 <0>         0.0000
  10837 WAT       -37.1820  -71.1660   -0.5830 O         1 <0>         0.0000
  10838 WAT       -37.1820  -71.1660   -0.3330 O         1 <0>         0.0000
  10839 WAT       -37.1820  -71.1660   -0.0830 O         1 <0>         0.0000
  10840 WAT       -37.1820  -70.9160   -9.8330 O         1 <0>         0.0000
  10841 WAT       -37.1820  -70.9160   -9.5830 O         1 <0>         0.0000
  10842 WAT       -37.1820  -70.9160   -9.3330 O         1 <0>         0.0000
  10843 WAT       -37.1820  -70.9160   -9.0830 O         1 <0>         0.0000
  10844 WAT       -37.1820  -70.9160   -8.8330 O         1 <0>         0.0000
  10845 WAT       -37.1820  -70.9160   -8.5830 O         1 <0>         0.0000
  10846 WAT       -37.1820  -70.9160   -8.3330 O         1 <0>         0.0000
  10847 WAT       -37.1820  -70.9160   -8.0830 O         1 <0>         0.0000
  10848 WAT       -37.1820  -70.9160   -7.8330 O         1 <0>         0.0000
  10849 WAT       -37.1820  -70.9160   -7.5830 O         1 <0>         0.0000
  10850 WAT       -37.1820  -70.9160   -7.3330 O         1 <0>         0.0000
  10851 WAT       -37.1820  -70.9160   -7.0830 O         1 <0>         0.0000
  10852 WAT       -37.1820  -70.9160   -6.8330 O         1 <0>         0.0000
  10853 WAT       -37.1820  -70.9160   -6.5830 O         1 <0>         0.0000
  10854 WAT       -37.1820  -70.9160   -6.3330 O         1 <0>         0.0000
  10855 WAT       -37.1820  -70.9160   -6.0830 O         1 <0>         0.0000
  10856 WAT       -37.1820  -70.9160   -5.8330 O         1 <0>         0.0000
  10857 WAT       -37.1820  -70.9160   -5.5830 O         1 <0>         0.0000
  10858 WAT       -37.1820  -70.9160   -5.3330 O         1 <0>         0.0000
  10859 WAT       -37.1820  -70.9160   -5.0830 O         1 <0>         0.0000
  10860 WAT       -37.1820  -70.9160   -4.8330 O         1 <0>         0.0000
  10861 WAT       -37.1820  -70.9160   -4.5830 O         1 <0>         0.0000
  10862 WAT       -37.1820  -70.9160   -4.3330 O         1 <0>         0.0000
  10863 WAT       -37.1820  -70.9160   -4.0830 O         1 <0>         0.0000
  10864 WAT       -37.1820  -70.9160   -3.8330 O         1 <0>         0.0000
  10865 WAT       -37.1820  -70.9160   -3.5830 O         1 <0>         0.0000
  10866 WAT       -37.1820  -70.9160   -3.3330 O         1 <0>         0.0000
  10867 WAT       -37.1820  -70.9160   -3.0830 O         1 <0>         0.0000
  10868 WAT       -37.1820  -70.9160   -2.8330 O         1 <0>         0.0000
  10869 WAT       -37.1820  -70.9160   -2.5830 O         1 <0>         0.0000
  10870 WAT       -37.1820  -70.9160   -2.3330 O         1 <0>         0.0000
  10871 WAT       -37.1820  -70.9160   -2.0830 O         1 <0>         0.0000
  10872 WAT       -37.1820  -70.9160   -1.8330 O         1 <0>         0.0000
  10873 WAT       -37.1820  -70.9160   -1.5830 O         1 <0>         0.0000
  10874 WAT       -37.1820  -70.9160   -1.3330 O         1 <0>         0.0000
  10875 WAT       -37.1820  -70.9160   -1.0830 O         1 <0>         0.0000
  10876 WAT       -37.1820  -70.9160   -0.8330 O         1 <0>         0.0000
  10877 WAT       -37.1820  -70.9160   -0.5830 O         1 <0>         0.0000
  10878 WAT       -37.1820  -70.9160   -0.3330 O         1 <0>         0.0000
  10879 WAT       -37.1820  -70.9160   -0.0830 O         1 <0>         0.0000
  10880 WAT       -37.1820  -70.6660   -9.8330 O         1 <0>         0.0000
  10881 WAT       -37.1820  -70.6660   -9.5830 O         1 <0>         0.0000
  10882 WAT       -37.1820  -70.6660   -9.3330 O         1 <0>         0.0000
  10883 WAT       -37.1820  -70.6660   -9.0830 O         1 <0>         0.0000
  10884 WAT       -37.1820  -70.6660   -8.8330 O         1 <0>         0.0000
  10885 WAT       -37.1820  -70.6660   -8.5830 O         1 <0>         0.0000
  10886 WAT       -37.1820  -70.6660   -8.3330 O         1 <0>         0.0000
  10887 WAT       -37.1820  -70.6660   -8.0830 O         1 <0>         0.0000
  10888 WAT       -37.1820  -70.6660   -7.8330 O         1 <0>         0.0000
  10889 WAT       -37.1820  -70.6660   -7.5830 O         1 <0>         0.0000
  10890 WAT       -37.1820  -70.6660   -7.3330 O         1 <0>         0.0000
  10891 WAT       -37.1820  -70.6660   -7.0830 O         1 <0>         0.0000
  10892 WAT       -37.1820  -70.6660   -6.8330 O         1 <0>         0.0000
  10893 WAT       -37.1820  -70.6660   -6.5830 O         1 <0>         0.0000
  10894 WAT       -37.1820  -70.6660   -6.3330 O         1 <0>         0.0000
  10895 WAT       -37.1820  -70.6660   -6.0830 O         1 <0>         0.0000
  10896 WAT       -37.1820  -70.6660   -5.8330 O         1 <0>         0.0000
  10897 WAT       -37.1820  -70.6660   -5.5830 O         1 <0>         0.0000
  10898 WAT       -37.1820  -70.6660   -5.3330 O         1 <0>         0.0000
  10899 WAT       -37.1820  -70.6660   -5.0830 O         1 <0>         0.0000
  10900 WAT       -37.1820  -70.6660   -4.8330 O         1 <0>         0.0000
  10901 WAT       -37.1820  -70.6660   -4.5830 O         1 <0>         0.0000
  10902 WAT       -37.1820  -70.6660   -4.3330 O         1 <0>         0.0000
  10903 WAT       -37.1820  -70.6660   -4.0830 O         1 <0>         0.0000
  10904 WAT       -37.1820  -70.6660   -3.8330 O         1 <0>         0.0000
  10905 WAT       -37.1820  -70.6660   -3.5830 O         1 <0>         0.0000
  10906 WAT       -37.1820  -70.6660   -3.3330 O         1 <0>         0.0000
  10907 WAT       -37.1820  -70.6660   -3.0830 O         1 <0>         0.0000
  10908 WAT       -37.1820  -70.6660   -2.8330 O         1 <0>         0.0000
  10909 WAT       -37.1820  -70.6660   -2.5830 O         1 <0>         0.0000
  10910 WAT       -37.1820  -70.6660   -2.3330 O         1 <0>         0.0000
  10911 WAT       -37.1820  -70.6660   -2.0830 O         1 <0>         0.0000
  10912 WAT       -37.1820  -70.6660   -1.8330 O         1 <0>         0.0000
  10913 WAT       -37.1820  -70.6660   -1.5830 O         1 <0>         0.0000
  10914 WAT       -37.1820  -70.6660   -1.3330 O         1 <0>         0.0000
  10915 WAT       -37.1820  -70.6660   -1.0830 O         1 <0>         0.0000
  10916 WAT       -37.1820  -70.6660   -0.8330 O         1 <0>         0.0000
  10917 WAT       -37.1820  -70.6660   -0.5830 O         1 <0>         0.0000
  10918 WAT       -37.1820  -70.6660   -0.3330 O         1 <0>         0.0000
  10919 WAT       -37.1820  -70.6660   -0.0830 O         1 <0>         0.0000
  10920 WAT       -37.1820  -70.4160   -9.8330 O         1 <0>         0.0000
  10921 WAT       -37.1820  -70.4160   -9.5830 O         1 <0>         0.0000
  10922 WAT       -37.1820  -70.4160   -9.3330 O         1 <0>         0.0000
  10923 WAT       -37.1820  -70.4160   -9.0830 O         1 <0>         0.0000
  10924 WAT       -37.1820  -70.4160   -8.8330 O         1 <0>         0.0000
  10925 WAT       -37.1820  -70.4160   -8.5830 O         1 <0>         0.0000
  10926 WAT       -37.1820  -70.4160   -8.3330 O         1 <0>         0.0000
  10927 WAT       -37.1820  -70.4160   -8.0830 O         1 <0>         0.0000
  10928 WAT       -37.1820  -70.4160   -7.8330 O         1 <0>         0.0000
  10929 WAT       -37.1820  -70.4160   -7.5830 O         1 <0>         0.0000
  10930 WAT       -37.1820  -70.4160   -7.3330 O         1 <0>         0.0000
  10931 WAT       -37.1820  -70.4160   -7.0830 O         1 <0>         0.0000
  10932 WAT       -37.1820  -70.4160   -6.8330 O         1 <0>         0.0000
  10933 WAT       -37.1820  -70.4160   -6.5830 O         1 <0>         0.0000
  10934 WAT       -37.1820  -70.4160   -6.3330 O         1 <0>         0.0000
  10935 WAT       -37.1820  -70.4160   -6.0830 O         1 <0>         0.0000
  10936 WAT       -37.1820  -70.4160   -5.8330 O         1 <0>         0.0000
  10937 WAT       -37.1820  -70.4160   -5.5830 O         1 <0>         0.0000
  10938 WAT       -37.1820  -70.4160   -5.3330 O         1 <0>         0.0000
  10939 WAT       -37.1820  -70.4160   -5.0830 O         1 <0>         0.0000
  10940 WAT       -37.1820  -70.4160   -4.8330 O         1 <0>         0.0000
  10941 WAT       -37.1820  -70.4160   -4.5830 O         1 <0>         0.0000
  10942 WAT       -37.1820  -70.4160   -4.3330 O         1 <0>         0.0000
  10943 WAT       -37.1820  -70.4160   -4.0830 O         1 <0>         0.0000
  10944 WAT       -37.1820  -70.4160   -3.8330 O         1 <0>         0.0000
  10945 WAT       -37.1820  -70.4160   -3.5830 O         1 <0>         0.0000
  10946 WAT       -37.1820  -70.4160   -3.3330 O         1 <0>         0.0000
  10947 WAT       -37.1820  -70.4160   -3.0830 O         1 <0>         0.0000
  10948 WAT       -37.1820  -70.4160   -2.8330 O         1 <0>         0.0000
  10949 WAT       -37.1820  -70.4160   -2.5830 O         1 <0>         0.0000
  10950 WAT       -37.1820  -70.4160   -2.3330 O         1 <0>         0.0000
  10951 WAT       -37.1820  -70.4160   -2.0830 O         1 <0>         0.0000
  10952 WAT       -37.1820  -70.4160   -1.8330 O         1 <0>         0.0000
  10953 WAT       -37.1820  -70.4160   -1.5830 O         1 <0>         0.0000
  10954 WAT       -37.1820  -70.4160   -1.3330 O         1 <0>         0.0000
  10955 WAT       -37.1820  -70.4160   -1.0830 O         1 <0>         0.0000
  10956 WAT       -37.1820  -70.4160   -0.8330 O         1 <0>         0.0000
  10957 WAT       -37.1820  -70.4160   -0.5830 O         1 <0>         0.0000
  10958 WAT       -37.1820  -70.4160   -0.3330 O         1 <0>         0.0000
  10959 WAT       -37.1820  -70.4160   -0.0830 O         1 <0>         0.0000
  10960 WAT       -37.1820  -70.1660   -9.8330 O         1 <0>         0.0000
  10961 WAT       -37.1820  -70.1660   -9.5830 O         1 <0>         0.0000
  10962 WAT       -37.1820  -70.1660   -9.3330 O         1 <0>         0.0000
  10963 WAT       -37.1820  -70.1660   -9.0830 O         1 <0>         0.0000
  10964 WAT       -37.1820  -70.1660   -8.8330 O         1 <0>         0.0000
  10965 WAT       -37.1820  -70.1660   -8.5830 O         1 <0>         0.0000
  10966 WAT       -37.1820  -70.1660   -8.3330 O         1 <0>         0.0000
  10967 WAT       -37.1820  -70.1660   -8.0830 O         1 <0>         0.0000
  10968 WAT       -37.1820  -70.1660   -7.8330 O         1 <0>         0.0000
  10969 WAT       -37.1820  -70.1660   -7.5830 O         1 <0>         0.0000
  10970 WAT       -37.1820  -70.1660   -7.3330 O         1 <0>         0.0000
  10971 WAT       -37.1820  -70.1660   -7.0830 O         1 <0>         0.0000
  10972 WAT       -37.1820  -70.1660   -6.8330 O         1 <0>         0.0000
  10973 WAT       -37.1820  -70.1660   -6.5830 O         1 <0>         0.0000
  10974 WAT       -37.1820  -70.1660   -6.3330 O         1 <0>         0.0000
  10975 WAT       -37.1820  -70.1660   -6.0830 O         1 <0>         0.0000
  10976 WAT       -37.1820  -70.1660   -5.8330 O         1 <0>         0.0000
  10977 WAT       -37.1820  -70.1660   -5.5830 O         1 <0>         0.0000
  10978 WAT       -37.1820  -70.1660   -5.3330 O         1 <0>         0.0000
  10979 WAT       -37.1820  -70.1660   -5.0830 O         1 <0>         0.0000
  10980 WAT       -37.1820  -70.1660   -4.8330 O         1 <0>         0.0000
  10981 WAT       -37.1820  -70.1660   -4.5830 O         1 <0>         0.0000
  10982 WAT       -37.1820  -70.1660   -4.3330 O         1 <0>         0.0000
  10983 WAT       -37.1820  -70.1660   -4.0830 O         1 <0>         0.0000
  10984 WAT       -37.1820  -70.1660   -3.8330 O         1 <0>         0.0000
  10985 WAT       -37.1820  -70.1660   -3.5830 O         1 <0>         0.0000
  10986 WAT       -37.1820  -70.1660   -3.3330 O         1 <0>         0.0000
  10987 WAT       -37.1820  -70.1660   -3.0830 O         1 <0>         0.0000
  10988 WAT       -37.1820  -70.1660   -2.8330 O         1 <0>         0.0000
  10989 WAT       -37.1820  -70.1660   -2.5830 O         1 <0>         0.0000
  10990 WAT       -37.1820  -70.1660   -2.3330 O         1 <0>         0.0000
  10991 WAT       -37.1820  -70.1660   -2.0830 O         1 <0>         0.0000
  10992 WAT       -37.1820  -70.1660   -1.8330 O         1 <0>         0.0000
  10993 WAT       -37.1820  -70.1660   -1.5830 O         1 <0>         0.0000
  10994 WAT       -37.1820  -70.1660   -1.3330 O         1 <0>         0.0000
  10995 WAT       -37.1820  -70.1660   -1.0830 O         1 <0>         0.0000
  10996 WAT       -37.1820  -70.1660   -0.8330 O         1 <0>         0.0000
  10997 WAT       -37.1820  -70.1660   -0.5830 O         1 <0>         0.0000
  10998 WAT       -37.1820  -70.1660   -0.3330 O         1 <0>         0.0000
  10999 WAT       -37.1820  -70.1660   -0.0830 O         1 <0>         0.0000
  11000 WAT       -37.1820  -69.9160   -9.8330 O         1 <0>         0.0000
  11001 WAT       -37.1820  -69.9160   -9.5830 O         1 <0>         0.0000
  11002 WAT       -37.1820  -69.9160   -9.3330 O         1 <0>         0.0000
  11003 WAT       -37.1820  -69.9160   -9.0830 O         1 <0>         0.0000
  11004 WAT       -37.1820  -69.9160   -8.8330 O         1 <0>         0.0000
  11005 WAT       -37.1820  -69.9160   -8.5830 O         1 <0>         0.0000
  11006 WAT       -37.1820  -69.9160   -8.3330 O         1 <0>         0.0000
  11007 WAT       -37.1820  -69.9160   -8.0830 O         1 <0>         0.0000
  11008 WAT       -37.1820  -69.9160   -7.8330 O         1 <0>         0.0000
  11009 WAT       -37.1820  -69.9160   -7.5830 O         1 <0>         0.0000
  11010 WAT       -37.1820  -69.9160   -7.3330 O         1 <0>         0.0000
  11011 WAT       -37.1820  -69.9160   -7.0830 O         1 <0>         0.0000
  11012 WAT       -37.1820  -69.9160   -6.8330 O         1 <0>         0.0000
  11013 WAT       -37.1820  -69.9160   -6.5830 O         1 <0>         0.0000
  11014 WAT       -37.1820  -69.9160   -6.3330 O         1 <0>         0.0000
  11015 WAT       -37.1820  -69.9160   -6.0830 O         1 <0>         0.0000
  11016 WAT       -37.1820  -69.9160   -5.8330 O         1 <0>         0.0000
  11017 WAT       -37.1820  -69.9160   -5.5830 O         1 <0>         0.0000
  11018 WAT       -37.1820  -69.9160   -5.3330 O         1 <0>         0.0000
  11019 WAT       -37.1820  -69.9160   -5.0830 O         1 <0>         0.0000
  11020 WAT       -37.1820  -69.9160   -4.8330 O         1 <0>         0.0000
  11021 WAT       -37.1820  -69.9160   -4.5830 O         1 <0>         0.0000
  11022 WAT       -37.1820  -69.9160   -4.3330 O         1 <0>         0.0000
  11023 WAT       -37.1820  -69.9160   -4.0830 O         1 <0>         0.0000
  11024 WAT       -37.1820  -69.9160   -3.8330 O         1 <0>         0.0000
  11025 WAT       -37.1820  -69.9160   -3.5830 O         1 <0>         0.0000
  11026 WAT       -37.1820  -69.9160   -3.3330 O         1 <0>         0.0000
  11027 WAT       -37.1820  -69.9160   -3.0830 O         1 <0>         0.0000
  11028 WAT       -37.1820  -69.9160   -2.8330 O         1 <0>         0.0000
  11029 WAT       -37.1820  -69.9160   -2.5830 O         1 <0>         0.0000
  11030 WAT       -37.1820  -69.9160   -2.3330 O         1 <0>         0.0000
  11031 WAT       -37.1820  -69.9160   -2.0830 O         1 <0>         0.0000
  11032 WAT       -37.1820  -69.9160   -1.8330 O         1 <0>         0.0000
  11033 WAT       -37.1820  -69.9160   -1.5830 O         1 <0>         0.0000
  11034 WAT       -37.1820  -69.9160   -1.3330 O         1 <0>         0.0000
  11035 WAT       -37.1820  -69.9160   -1.0830 O         1 <0>         0.0000
  11036 WAT       -37.1820  -69.9160   -0.8330 O         1 <0>         0.0000
  11037 WAT       -37.1820  -69.9160   -0.5830 O         1 <0>         0.0000
  11038 WAT       -37.1820  -69.9160   -0.3330 O         1 <0>         0.0000
  11039 WAT       -37.1820  -69.9160   -0.0830 O         1 <0>         0.0000
  11040 WAT       -37.1820  -69.6660   -9.8330 O         1 <0>         0.0000
  11041 WAT       -37.1820  -69.6660   -9.5830 O         1 <0>         0.0000
  11042 WAT       -37.1820  -69.6660   -9.3330 O         1 <0>         0.0000
  11043 WAT       -37.1820  -69.6660   -9.0830 O         1 <0>         0.0000
  11044 WAT       -37.1820  -69.6660   -8.8330 O         1 <0>         0.0000
  11045 WAT       -37.1820  -69.6660   -8.5830 O         1 <0>         0.0000
  11046 WAT       -37.1820  -69.6660   -8.3330 O         1 <0>         0.0000
  11047 WAT       -37.1820  -69.6660   -8.0830 O         1 <0>         0.0000
  11048 WAT       -37.1820  -69.6660   -7.8330 O         1 <0>         0.0000
  11049 WAT       -37.1820  -69.6660   -7.5830 O         1 <0>         0.0000
  11050 WAT       -37.1820  -69.6660   -7.3330 O         1 <0>         0.0000
  11051 WAT       -37.1820  -69.6660   -7.0830 O         1 <0>         0.0000
  11052 WAT       -37.1820  -69.6660   -6.8330 O         1 <0>         0.0000
  11053 WAT       -37.1820  -69.6660   -6.5830 O         1 <0>         0.0000
  11054 WAT       -37.1820  -69.6660   -6.3330 O         1 <0>         0.0000
  11055 WAT       -37.1820  -69.6660   -6.0830 O         1 <0>         0.0000
  11056 WAT       -37.1820  -69.6660   -5.8330 O         1 <0>         0.0000
  11057 WAT       -37.1820  -69.6660   -5.5830 O         1 <0>         0.0000
  11058 WAT       -37.1820  -69.6660   -5.3330 O         1 <0>         0.0000
  11059 WAT       -37.1820  -69.6660   -5.0830 O         1 <0>         0.0000
  11060 WAT       -37.1820  -69.6660   -4.8330 O         1 <0>         0.0000
  11061 WAT       -37.1820  -69.6660   -4.5830 O         1 <0>         0.0000
  11062 WAT       -37.1820  -69.6660   -4.3330 O         1 <0>         0.0000
  11063 WAT       -37.1820  -69.6660   -4.0830 O         1 <0>         0.0000
  11064 WAT       -37.1820  -69.6660   -3.8330 O         1 <0>         0.0000
  11065 WAT       -37.1820  -69.6660   -3.5830 O         1 <0>         0.0000
  11066 WAT       -37.1820  -69.6660   -3.3330 O         1 <0>         0.0000
  11067 WAT       -37.1820  -69.6660   -3.0830 O         1 <0>         0.0000
  11068 WAT       -37.1820  -69.6660   -2.8330 O         1 <0>         0.0000
  11069 WAT       -37.1820  -69.6660   -2.5830 O         1 <0>         0.0000
  11070 WAT       -37.1820  -69.6660   -2.3330 O         1 <0>         0.0000
  11071 WAT       -37.1820  -69.6660   -2.0830 O         1 <0>         0.0000
  11072 WAT       -37.1820  -69.6660   -1.8330 O         1 <0>         0.0000
  11073 WAT       -37.1820  -69.6660   -1.5830 O         1 <0>         0.0000
  11074 WAT       -37.1820  -69.6660   -1.3330 O         1 <0>         0.0000
  11075 WAT       -37.1820  -69.6660   -1.0830 O         1 <0>         0.0000
  11076 WAT       -37.1820  -69.6660   -0.8330 O         1 <0>         0.0000
  11077 WAT       -37.1820  -69.6660   -0.5830 O         1 <0>         0.0000
  11078 WAT       -37.1820  -69.6660   -0.3330 O         1 <0>         0.0000
  11079 WAT       -37.1820  -69.6660   -0.0830 O         1 <0>         0.0000
  11080 WAT       -37.1820  -69.4160   -9.8330 O         1 <0>         0.0000
  11081 WAT       -37.1820  -69.4160   -9.5830 O         1 <0>         0.0000
  11082 WAT       -37.1820  -69.4160   -9.3330 O         1 <0>         0.0000
  11083 WAT       -37.1820  -69.4160   -9.0830 O         1 <0>         0.0000
  11084 WAT       -37.1820  -69.4160   -8.8330 O         1 <0>         0.0000
  11085 WAT       -37.1820  -69.4160   -8.5830 O         1 <0>         0.0000
  11086 WAT       -37.1820  -69.4160   -8.3330 O         1 <0>         0.0000
  11087 WAT       -37.1820  -69.4160   -8.0830 O         1 <0>         0.0000
  11088 WAT       -37.1820  -69.4160   -7.8330 O         1 <0>         0.0000
  11089 WAT       -37.1820  -69.4160   -7.5830 O         1 <0>         0.0000
  11090 WAT       -37.1820  -69.4160   -7.3330 O         1 <0>         0.0000
  11091 WAT       -37.1820  -69.4160   -7.0830 O         1 <0>         0.0000
  11092 WAT       -37.1820  -69.4160   -6.8330 O         1 <0>         0.0000
  11093 WAT       -37.1820  -69.4160   -6.5830 O         1 <0>         0.0000
  11094 WAT       -37.1820  -69.4160   -6.3330 O         1 <0>         0.0000
  11095 WAT       -37.1820  -69.4160   -6.0830 O         1 <0>         0.0000
  11096 WAT       -37.1820  -69.4160   -5.8330 O         1 <0>         0.0000
  11097 WAT       -37.1820  -69.4160   -5.5830 O         1 <0>         0.0000
  11098 WAT       -37.1820  -69.4160   -5.3330 O         1 <0>         0.0000
  11099 WAT       -37.1820  -69.4160   -5.0830 O         1 <0>         0.0000
  11100 WAT       -37.1820  -69.4160   -4.8330 O         1 <0>         0.0000
  11101 WAT       -37.1820  -69.4160   -4.5830 O         1 <0>         0.0000
  11102 WAT       -37.1820  -69.4160   -4.3330 O         1 <0>         0.0000
  11103 WAT       -37.1820  -69.4160   -4.0830 O         1 <0>         0.0000
  11104 WAT       -37.1820  -69.4160   -3.8330 O         1 <0>         0.0000
  11105 WAT       -37.1820  -69.4160   -3.5830 O         1 <0>         0.0000
  11106 WAT       -37.1820  -69.4160   -3.3330 O         1 <0>         0.0000
  11107 WAT       -37.1820  -69.4160   -3.0830 O         1 <0>         0.0000
  11108 WAT       -37.1820  -69.4160   -2.8330 O         1 <0>         0.0000
  11109 WAT       -37.1820  -69.4160   -2.5830 O         1 <0>         0.0000
  11110 WAT       -37.1820  -69.4160   -2.3330 O         1 <0>         0.0000
  11111 WAT       -37.1820  -69.4160   -2.0830 O         1 <0>         0.0000
  11112 WAT       -37.1820  -69.4160   -1.8330 O         1 <0>         0.0000
  11113 WAT       -37.1820  -69.4160   -1.5830 O         1 <0>         0.0000
  11114 WAT       -37.1820  -69.4160   -1.3330 O         1 <0>         0.0000
  11115 WAT       -37.1820  -69.4160   -1.0830 O         1 <0>         0.0000
  11116 WAT       -37.1820  -69.4160   -0.8330 O         1 <0>         0.0000
  11117 WAT       -37.1820  -69.4160   -0.5830 O         1 <0>         0.0000
  11118 WAT       -37.1820  -69.4160   -0.3330 O         1 <0>         0.0000
  11119 WAT       -37.1820  -69.4160   -0.0830 O         1 <0>         0.0000
  11120 WAT       -37.1820  -69.1660   -9.8330 O         1 <0>         0.0000
  11121 WAT       -37.1820  -69.1660   -9.5830 O         1 <0>         0.0000
  11122 WAT       -37.1820  -69.1660   -9.3330 O         1 <0>         0.0000
  11123 WAT       -37.1820  -69.1660   -9.0830 O         1 <0>         0.0000
  11124 WAT       -37.1820  -69.1660   -8.8330 O         1 <0>         0.0000
  11125 WAT       -37.1820  -69.1660   -8.5830 O         1 <0>         0.0000
  11126 WAT       -37.1820  -69.1660   -8.3330 O         1 <0>         0.0000
  11127 WAT       -37.1820  -69.1660   -8.0830 O         1 <0>         0.0000
  11128 WAT       -37.1820  -69.1660   -7.8330 O         1 <0>         0.0000
  11129 WAT       -37.1820  -69.1660   -7.5830 O         1 <0>         0.0000
  11130 WAT       -37.1820  -69.1660   -7.3330 O         1 <0>         0.0000
  11131 WAT       -37.1820  -69.1660   -7.0830 O         1 <0>         0.0000
  11132 WAT       -37.1820  -69.1660   -6.8330 O         1 <0>         0.0000
  11133 WAT       -37.1820  -69.1660   -6.5830 O         1 <0>         0.0000
  11134 WAT       -37.1820  -69.1660   -6.3330 O         1 <0>         0.0000
  11135 WAT       -37.1820  -69.1660   -6.0830 O         1 <0>         0.0000
  11136 WAT       -37.1820  -69.1660   -5.8330 O         1 <0>         0.0000
  11137 WAT       -37.1820  -69.1660   -5.5830 O         1 <0>         0.0000
  11138 WAT       -37.1820  -69.1660   -5.3330 O         1 <0>         0.0000
  11139 WAT       -37.1820  -69.1660   -5.0830 O         1 <0>         0.0000
  11140 WAT       -37.1820  -69.1660   -4.8330 O         1 <0>         0.0000
  11141 WAT       -37.1820  -69.1660   -4.5830 O         1 <0>         0.0000
  11142 WAT       -37.1820  -69.1660   -4.3330 O         1 <0>         0.0000
  11143 WAT       -37.1820  -69.1660   -4.0830 O         1 <0>         0.0000
  11144 WAT       -37.1820  -69.1660   -3.8330 O         1 <0>         0.0000
  11145 WAT       -37.1820  -69.1660   -3.5830 O         1 <0>         0.0000
  11146 WAT       -37.1820  -69.1660   -3.3330 O         1 <0>         0.0000
  11147 WAT       -37.1820  -69.1660   -3.0830 O         1 <0>         0.0000
  11148 WAT       -37.1820  -69.1660   -2.8330 O         1 <0>         0.0000
  11149 WAT       -37.1820  -69.1660   -2.5830 O         1 <0>         0.0000
  11150 WAT       -37.1820  -69.1660   -2.3330 O         1 <0>         0.0000
  11151 WAT       -37.1820  -69.1660   -2.0830 O         1 <0>         0.0000
  11152 WAT       -37.1820  -69.1660   -1.8330 O         1 <0>         0.0000
  11153 WAT       -37.1820  -69.1660   -1.5830 O         1 <0>         0.0000
  11154 WAT       -37.1820  -69.1660   -1.3330 O         1 <0>         0.0000
  11155 WAT       -37.1820  -69.1660   -1.0830 O         1 <0>         0.0000
  11156 WAT       -37.1820  -69.1660   -0.8330 O         1 <0>         0.0000
  11157 WAT       -37.1820  -69.1660   -0.5830 O         1 <0>         0.0000
  11158 WAT       -37.1820  -69.1660   -0.3330 O         1 <0>         0.0000
  11159 WAT       -37.1820  -69.1660   -0.0830 O         1 <0>         0.0000
  11160 WAT       -37.1820  -68.9160   -9.8330 O         1 <0>         0.0000
  11161 WAT       -37.1820  -68.9160   -9.5830 O         1 <0>         0.0000
  11162 WAT       -37.1820  -68.9160   -9.3330 O         1 <0>         0.0000
  11163 WAT       -37.1820  -68.9160   -9.0830 O         1 <0>         0.0000
  11164 WAT       -37.1820  -68.9160   -8.8330 O         1 <0>         0.0000
  11165 WAT       -37.1820  -68.9160   -8.5830 O         1 <0>         0.0000
  11166 WAT       -37.1820  -68.9160   -8.3330 O         1 <0>         0.0000
  11167 WAT       -37.1820  -68.9160   -8.0830 O         1 <0>         0.0000
  11168 WAT       -37.1820  -68.9160   -7.8330 O         1 <0>         0.0000
  11169 WAT       -37.1820  -68.9160   -7.5830 O         1 <0>         0.0000
  11170 WAT       -37.1820  -68.9160   -7.3330 O         1 <0>         0.0000
  11171 WAT       -37.1820  -68.9160   -7.0830 O         1 <0>         0.0000
  11172 WAT       -37.1820  -68.9160   -6.8330 O         1 <0>         0.0000
  11173 WAT       -37.1820  -68.9160   -6.5830 O         1 <0>         0.0000
  11174 WAT       -37.1820  -68.9160   -6.3330 O         1 <0>         0.0000
  11175 WAT       -37.1820  -68.9160   -6.0830 O         1 <0>         0.0000
  11176 WAT       -37.1820  -68.9160   -5.8330 O         1 <0>         0.0000
  11177 WAT       -37.1820  -68.9160   -5.5830 O         1 <0>         0.0000
  11178 WAT       -37.1820  -68.9160   -5.3330 O         1 <0>         0.0000
  11179 WAT       -37.1820  -68.9160   -5.0830 O         1 <0>         0.0000
  11180 WAT       -37.1820  -68.9160   -4.8330 O         1 <0>         0.0000
  11181 WAT       -37.1820  -68.9160   -4.5830 O         1 <0>         0.0000
  11182 WAT       -37.1820  -68.9160   -4.3330 O         1 <0>         0.0000
  11183 WAT       -37.1820  -68.9160   -4.0830 O         1 <0>         0.0000
  11184 WAT       -37.1820  -68.9160   -3.8330 O         1 <0>         0.0000
  11185 WAT       -37.1820  -68.9160   -3.5830 O         1 <0>         0.0000
  11186 WAT       -37.1820  -68.9160   -3.3330 O         1 <0>         0.0000
  11187 WAT       -37.1820  -68.9160   -3.0830 O         1 <0>         0.0000
  11188 WAT       -37.1820  -68.9160   -2.8330 O         1 <0>         0.0000
  11189 WAT       -37.1820  -68.9160   -2.5830 O         1 <0>         0.0000
  11190 WAT       -37.1820  -68.9160   -2.3330 O         1 <0>         0.0000
  11191 WAT       -37.1820  -68.9160   -2.0830 O         1 <0>         0.0000
  11192 WAT       -37.1820  -68.9160   -1.8330 O         1 <0>         0.0000
  11193 WAT       -37.1820  -68.9160   -1.5830 O         1 <0>         0.0000
  11194 WAT       -37.1820  -68.9160   -1.3330 O         1 <0>         0.0000
  11195 WAT       -37.1820  -68.9160   -1.0830 O         1 <0>         0.0000
  11196 WAT       -37.1820  -68.9160   -0.8330 O         1 <0>         0.0000
  11197 WAT       -37.1820  -68.9160   -0.5830 O         1 <0>         0.0000
  11198 WAT       -37.1820  -68.9160   -0.3330 O         1 <0>         0.0000
  11199 WAT       -37.1820  -68.9160   -0.0830 O         1 <0>         0.0000
  11200 WAT       -36.9320  -77.4160   -9.8330 O         1 <0>         0.0000
  11201 WAT       -36.9320  -77.4160   -9.5830 O         1 <0>         0.0000
  11202 WAT       -36.9320  -77.4160   -9.3330 O         1 <0>         0.0000
  11203 WAT       -36.9320  -77.4160   -9.0830 O         1 <0>         0.0000
  11204 WAT       -36.9320  -77.4160   -8.8330 O         1 <0>         0.0000
  11205 WAT       -36.9320  -77.4160   -8.5830 O         1 <0>         0.0000
  11206 WAT       -36.9320  -77.4160   -8.3330 O         1 <0>         0.0000
  11207 WAT       -36.9320  -77.4160   -8.0830 O         1 <0>         0.0000
  11208 WAT       -36.9320  -77.4160   -7.8330 O         1 <0>         0.0000
  11209 WAT       -36.9320  -77.4160   -7.5830 O         1 <0>         0.0000
  11210 WAT       -36.9320  -77.4160   -7.3330 O         1 <0>         0.0000
  11211 WAT       -36.9320  -77.4160   -7.0830 O         1 <0>         0.0000
  11212 WAT       -36.9320  -77.4160   -6.8330 O         1 <0>         0.0000
  11213 WAT       -36.9320  -77.4160   -6.5830 O         1 <0>         0.0000
  11214 WAT       -36.9320  -77.4160   -6.3330 O         1 <0>         0.0000
  11215 WAT       -36.9320  -77.4160   -6.0830 O         1 <0>         0.0000
  11216 WAT       -36.9320  -77.4160   -5.8330 O         1 <0>         0.0000
  11217 WAT       -36.9320  -77.4160   -5.5830 O         1 <0>         0.0000
  11218 WAT       -36.9320  -77.4160   -5.3330 O         1 <0>         0.0000
  11219 WAT       -36.9320  -77.4160   -5.0830 O         1 <0>         0.0000
  11220 WAT       -36.9320  -77.4160   -4.8330 O         1 <0>         0.0000
  11221 WAT       -36.9320  -77.4160   -4.5830 O         1 <0>         0.0000
  11222 WAT       -36.9320  -77.4160   -4.3330 O         1 <0>         0.0000
  11223 WAT       -36.9320  -77.4160   -4.0830 O         1 <0>         0.0000
  11224 WAT       -36.9320  -77.4160   -3.8330 O         1 <0>         0.0000
  11225 WAT       -36.9320  -77.4160   -3.5830 O         1 <0>         0.0000
  11226 WAT       -36.9320  -77.4160   -3.3330 O         1 <0>         0.0000
  11227 WAT       -36.9320  -77.4160   -3.0830 O         1 <0>         0.0000
  11228 WAT       -36.9320  -77.4160   -2.8330 O         1 <0>         0.0000
  11229 WAT       -36.9320  -77.4160   -2.5830 O         1 <0>         0.0000
  11230 WAT       -36.9320  -77.4160   -2.3330 O         1 <0>         0.0000
  11231 WAT       -36.9320  -77.4160   -2.0830 O         1 <0>         0.0000
  11232 WAT       -36.9320  -77.4160   -1.8330 O         1 <0>         0.0000
  11233 WAT       -36.9320  -77.4160   -1.5830 O         1 <0>         0.0000
  11234 WAT       -36.9320  -77.4160   -1.3330 O         1 <0>         0.0000
  11235 WAT       -36.9320  -77.4160   -1.0830 O         1 <0>         0.0000
  11236 WAT       -36.9320  -77.4160   -0.8330 O         1 <0>         0.0000
  11237 WAT       -36.9320  -77.4160   -0.5830 O         1 <0>         0.0000
  11238 WAT       -36.9320  -77.4160   -0.3330 O         1 <0>         0.0000
  11239 WAT       -36.9320  -77.4160   -0.0830 O         1 <0>         0.0000
  11240 WAT       -36.9320  -77.1660   -9.8330 O         1 <0>         0.0000
  11241 WAT       -36.9320  -77.1660   -9.5830 O         1 <0>         0.0000
  11242 WAT       -36.9320  -77.1660   -9.3330 O         1 <0>         0.0000
  11243 WAT       -36.9320  -77.1660   -9.0830 O         1 <0>         0.0000
  11244 WAT       -36.9320  -77.1660   -8.8330 O         1 <0>         0.0000
  11245 WAT       -36.9320  -77.1660   -8.5830 O         1 <0>         0.0000
  11246 WAT       -36.9320  -77.1660   -8.3330 O         1 <0>         0.0000
  11247 WAT       -36.9320  -77.1660   -8.0830 O         1 <0>         0.0000
  11248 WAT       -36.9320  -77.1660   -7.8330 O         1 <0>         0.0000
  11249 WAT       -36.9320  -77.1660   -7.5830 O         1 <0>         0.0000
  11250 WAT       -36.9320  -77.1660   -7.3330 O         1 <0>         0.0000
  11251 WAT       -36.9320  -77.1660   -7.0830 O         1 <0>         0.0000
  11252 WAT       -36.9320  -77.1660   -6.8330 O         1 <0>         0.0000
  11253 WAT       -36.9320  -77.1660   -6.5830 O         1 <0>         0.0000
  11254 WAT       -36.9320  -77.1660   -6.3330 O         1 <0>         0.0000
  11255 WAT       -36.9320  -77.1660   -6.0830 O         1 <0>         0.0000
  11256 WAT       -36.9320  -77.1660   -5.8330 O         1 <0>         0.0000
  11257 WAT       -36.9320  -77.1660   -5.5830 O         1 <0>         0.0000
  11258 WAT       -36.9320  -77.1660   -5.3330 O         1 <0>         0.0000
  11259 WAT       -36.9320  -77.1660   -5.0830 O         1 <0>         0.0000
  11260 WAT       -36.9320  -77.1660   -4.8330 O         1 <0>         0.0000
  11261 WAT       -36.9320  -77.1660   -4.5830 O         1 <0>         0.0000
  11262 WAT       -36.9320  -77.1660   -4.3330 O         1 <0>         0.0000
  11263 WAT       -36.9320  -77.1660   -4.0830 O         1 <0>         0.0000
  11264 WAT       -36.9320  -77.1660   -3.8330 O         1 <0>         0.0000
  11265 WAT       -36.9320  -77.1660   -3.5830 O         1 <0>         0.0000
  11266 WAT       -36.9320  -77.1660   -3.3330 O         1 <0>         0.0000
  11267 WAT       -36.9320  -77.1660   -3.0830 O         1 <0>         0.0000
  11268 WAT       -36.9320  -77.1660   -2.8330 O         1 <0>         0.0000
  11269 WAT       -36.9320  -77.1660   -2.5830 O         1 <0>         0.0000
  11270 WAT       -36.9320  -77.1660   -2.3330 O         1 <0>         0.0000
  11271 WAT       -36.9320  -77.1660   -2.0830 O         1 <0>         0.0000
  11272 WAT       -36.9320  -77.1660   -1.8330 O         1 <0>         0.0000
  11273 WAT       -36.9320  -77.1660   -1.5830 O         1 <0>         0.0000
  11274 WAT       -36.9320  -77.1660   -1.3330 O         1 <0>         0.0000
  11275 WAT       -36.9320  -77.1660   -1.0830 O         1 <0>         0.0000
  11276 WAT       -36.9320  -77.1660   -0.8330 O         1 <0>         0.0000
  11277 WAT       -36.9320  -77.1660   -0.5830 O         1 <0>         0.0000
  11278 WAT       -36.9320  -77.1660   -0.3330 O         1 <0>         0.0000
  11279 WAT       -36.9320  -77.1660   -0.0830 O         1 <0>         0.0000
  11280 WAT       -36.9320  -76.9160   -9.8330 O         1 <0>         0.0000
  11281 WAT       -36.9320  -76.9160   -9.5830 O         1 <0>         0.0000
  11282 WAT       -36.9320  -76.9160   -9.3330 O         1 <0>         0.0000
  11283 WAT       -36.9320  -76.9160   -9.0830 O         1 <0>         0.0000
  11284 WAT       -36.9320  -76.9160   -8.8330 O         1 <0>         0.0000
  11285 WAT       -36.9320  -76.9160   -8.5830 O         1 <0>         0.0000
  11286 WAT       -36.9320  -76.9160   -8.3330 O         1 <0>         0.0000
  11287 WAT       -36.9320  -76.9160   -8.0830 O         1 <0>         0.0000
  11288 WAT       -36.9320  -76.9160   -7.8330 O         1 <0>         0.0000
  11289 WAT       -36.9320  -76.9160   -7.5830 O         1 <0>         0.0000
  11290 WAT       -36.9320  -76.9160   -7.3330 O         1 <0>         0.0000
  11291 WAT       -36.9320  -76.9160   -7.0830 O         1 <0>         0.0000
  11292 WAT       -36.9320  -76.9160   -6.8330 O         1 <0>         0.0000
  11293 WAT       -36.9320  -76.9160   -6.5830 O         1 <0>         0.0000
  11294 WAT       -36.9320  -76.9160   -6.3330 O         1 <0>         0.0000
  11295 WAT       -36.9320  -76.9160   -6.0830 O         1 <0>         0.0000
  11296 WAT       -36.9320  -76.9160   -5.8330 O         1 <0>         0.0000
  11297 WAT       -36.9320  -76.9160   -5.5830 O         1 <0>         0.0000
  11298 WAT       -36.9320  -76.9160   -5.3330 O         1 <0>         0.0000
  11299 WAT       -36.9320  -76.9160   -5.0830 O         1 <0>         0.0000
  11300 WAT       -36.9320  -76.9160   -4.8330 O         1 <0>         0.0000
  11301 WAT       -36.9320  -76.9160   -4.5830 O         1 <0>         0.0000
  11302 WAT       -36.9320  -76.9160   -4.3330 O         1 <0>         0.0000
  11303 WAT       -36.9320  -76.9160   -4.0830 O         1 <0>         0.0000
  11304 WAT       -36.9320  -76.9160   -3.8330 O         1 <0>         0.0000
  11305 WAT       -36.9320  -76.9160   -3.5830 O         1 <0>         0.0000
  11306 WAT       -36.9320  -76.9160   -3.3330 O         1 <0>         0.0000
  11307 WAT       -36.9320  -76.9160   -3.0830 O         1 <0>         0.0000
  11308 WAT       -36.9320  -76.9160   -2.8330 O         1 <0>         0.0000
  11309 WAT       -36.9320  -76.9160   -2.5830 O         1 <0>         0.0000
  11310 WAT       -36.9320  -76.9160   -2.3330 O         1 <0>         0.0000
  11311 WAT       -36.9320  -76.9160   -2.0830 O         1 <0>         0.0000
  11312 WAT       -36.9320  -76.9160   -1.8330 O         1 <0>         0.0000
  11313 WAT       -36.9320  -76.9160   -1.5830 O         1 <0>         0.0000
  11314 WAT       -36.9320  -76.9160   -1.3330 O         1 <0>         0.0000
  11315 WAT       -36.9320  -76.9160   -1.0830 O         1 <0>         0.0000
  11316 WAT       -36.9320  -76.9160   -0.8330 O         1 <0>         0.0000
  11317 WAT       -36.9320  -76.9160   -0.5830 O         1 <0>         0.0000
  11318 WAT       -36.9320  -76.9160   -0.3330 O         1 <0>         0.0000
  11319 WAT       -36.9320  -76.9160   -0.0830 O         1 <0>         0.0000
  11320 WAT       -36.9320  -76.6660   -9.8330 O         1 <0>         0.0000
  11321 WAT       -36.9320  -76.6660   -9.5830 O         1 <0>         0.0000
  11322 WAT       -36.9320  -76.6660   -9.3330 O         1 <0>         0.0000
  11323 WAT       -36.9320  -76.6660   -9.0830 O         1 <0>         0.0000
  11324 WAT       -36.9320  -76.6660   -8.8330 O         1 <0>         0.0000
  11325 WAT       -36.9320  -76.6660   -8.5830 O         1 <0>         0.0000
  11326 WAT       -36.9320  -76.6660   -8.3330 O         1 <0>         0.0000
  11327 WAT       -36.9320  -76.6660   -8.0830 O         1 <0>         0.0000
  11328 WAT       -36.9320  -76.6660   -7.8330 O         1 <0>         0.0000
  11329 WAT       -36.9320  -76.6660   -7.5830 O         1 <0>         0.0000
  11330 WAT       -36.9320  -76.6660   -7.3330 O         1 <0>         0.0000
  11331 WAT       -36.9320  -76.6660   -7.0830 O         1 <0>         0.0000
  11332 WAT       -36.9320  -76.6660   -6.8330 O         1 <0>         0.0000
  11333 WAT       -36.9320  -76.6660   -6.5830 O         1 <0>         0.0000
  11334 WAT       -36.9320  -76.6660   -6.3330 O         1 <0>         0.0000
  11335 WAT       -36.9320  -76.6660   -6.0830 O         1 <0>         0.0000
  11336 WAT       -36.9320  -76.6660   -5.8330 O         1 <0>         0.0000
  11337 WAT       -36.9320  -76.6660   -5.5830 O         1 <0>         0.0000
  11338 WAT       -36.9320  -76.6660   -5.3330 O         1 <0>         0.0000
  11339 WAT       -36.9320  -76.6660   -5.0830 O         1 <0>         0.0000
  11340 WAT       -36.9320  -76.6660   -4.8330 O         1 <0>         0.0000
  11341 WAT       -36.9320  -76.6660   -4.5830 O         1 <0>         0.0000
  11342 WAT       -36.9320  -76.6660   -4.3330 O         1 <0>         0.0000
  11343 WAT       -36.9320  -76.6660   -4.0830 O         1 <0>         0.0000
  11344 WAT       -36.9320  -76.6660   -3.8330 O         1 <0>         0.0000
  11345 WAT       -36.9320  -76.6660   -3.5830 O         1 <0>         0.0000
  11346 WAT       -36.9320  -76.6660   -3.3330 O         1 <0>         0.0000
  11347 WAT       -36.9320  -76.6660   -3.0830 O         1 <0>         0.0000
  11348 WAT       -36.9320  -76.6660   -2.8330 O         1 <0>         0.0000
  11349 WAT       -36.9320  -76.6660   -2.5830 O         1 <0>         0.0000
  11350 WAT       -36.9320  -76.6660   -2.3330 O         1 <0>         0.0000
  11351 WAT       -36.9320  -76.6660   -2.0830 O         1 <0>         0.0000
  11352 WAT       -36.9320  -76.6660   -1.8330 O         1 <0>         0.0000
  11353 WAT       -36.9320  -76.6660   -1.5830 O         1 <0>         0.0000
  11354 WAT       -36.9320  -76.6660   -1.3330 O         1 <0>         0.0000
  11355 WAT       -36.9320  -76.6660   -1.0830 O         1 <0>         0.0000
  11356 WAT       -36.9320  -76.6660   -0.8330 O         1 <0>         0.0000
  11357 WAT       -36.9320  -76.6660   -0.5830 O         1 <0>         0.0000
  11358 WAT       -36.9320  -76.6660   -0.3330 O         1 <0>         0.0000
  11359 WAT       -36.9320  -76.6660   -0.0830 O         1 <0>         0.0000
  11360 WAT       -36.9320  -76.4160   -9.8330 O         1 <0>         0.0000
  11361 WAT       -36.9320  -76.4160   -9.5830 O         1 <0>         0.0000
  11362 WAT       -36.9320  -76.4160   -9.3330 O         1 <0>         0.0000
  11363 WAT       -36.9320  -76.4160   -9.0830 O         1 <0>         0.0000
  11364 WAT       -36.9320  -76.4160   -8.8330 O         1 <0>         0.0000
  11365 WAT       -36.9320  -76.4160   -8.5830 O         1 <0>         0.0000
  11366 WAT       -36.9320  -76.4160   -8.3330 O         1 <0>         0.0000
  11367 WAT       -36.9320  -76.4160   -8.0830 O         1 <0>         0.0000
  11368 WAT       -36.9320  -76.4160   -7.8330 O         1 <0>         0.0000
  11369 WAT       -36.9320  -76.4160   -7.5830 O         1 <0>         0.0000
  11370 WAT       -36.9320  -76.4160   -7.3330 O         1 <0>         0.0000
  11371 WAT       -36.9320  -76.4160   -7.0830 O         1 <0>         0.0000
  11372 WAT       -36.9320  -76.4160   -6.8330 O         1 <0>         0.0000
  11373 WAT       -36.9320  -76.4160   -6.5830 O         1 <0>         0.0000
  11374 WAT       -36.9320  -76.4160   -6.3330 O         1 <0>         0.0000
  11375 WAT       -36.9320  -76.4160   -6.0830 O         1 <0>         0.0000
  11376 WAT       -36.9320  -76.4160   -5.8330 O         1 <0>         0.0000
  11377 WAT       -36.9320  -76.4160   -5.5830 O         1 <0>         0.0000
  11378 WAT       -36.9320  -76.4160   -5.3330 O         1 <0>         0.0000
  11379 WAT       -36.9320  -76.4160   -5.0830 O         1 <0>         0.0000
  11380 WAT       -36.9320  -76.4160   -4.8330 O         1 <0>         0.0000
  11381 WAT       -36.9320  -76.4160   -4.5830 O         1 <0>         0.0000
  11382 WAT       -36.9320  -76.4160   -4.3330 O         1 <0>         0.0000
  11383 WAT       -36.9320  -76.4160   -4.0830 O         1 <0>         0.0000
  11384 WAT       -36.9320  -76.4160   -3.8330 O         1 <0>         0.0000
  11385 WAT       -36.9320  -76.4160   -3.5830 O         1 <0>         0.0000
  11386 WAT       -36.9320  -76.4160   -3.3330 O         1 <0>         0.0000
  11387 WAT       -36.9320  -76.4160   -3.0830 O         1 <0>         0.0000
  11388 WAT       -36.9320  -76.4160   -2.8330 O         1 <0>         0.0000
  11389 WAT       -36.9320  -76.4160   -2.5830 O         1 <0>         0.0000
  11390 WAT       -36.9320  -76.4160   -2.3330 O         1 <0>         0.0000
  11391 WAT       -36.9320  -76.4160   -2.0830 O         1 <0>         0.0000
  11392 WAT       -36.9320  -76.4160   -1.8330 O         1 <0>         0.0000
  11393 WAT       -36.9320  -76.4160   -1.5830 O         1 <0>         0.0000
  11394 WAT       -36.9320  -76.4160   -1.3330 O         1 <0>         0.0000
  11395 WAT       -36.9320  -76.4160   -1.0830 O         1 <0>         0.0000
  11396 WAT       -36.9320  -76.4160   -0.8330 O         1 <0>         0.0000
  11397 WAT       -36.9320  -76.4160   -0.5830 O         1 <0>         0.0000
  11398 WAT       -36.9320  -76.4160   -0.3330 O         1 <0>         0.0000
  11399 WAT       -36.9320  -76.4160   -0.0830 O         1 <0>         0.0000
  11400 WAT       -36.9320  -76.1660   -9.8330 O         1 <0>         0.0000
  11401 WAT       -36.9320  -76.1660   -9.5830 O         1 <0>         0.0000
  11402 WAT       -36.9320  -76.1660   -9.3330 O         1 <0>         0.0000
  11403 WAT       -36.9320  -76.1660   -9.0830 O         1 <0>         0.0000
  11404 WAT       -36.9320  -76.1660   -8.8330 O         1 <0>         0.0000
  11405 WAT       -36.9320  -76.1660   -8.5830 O         1 <0>         0.0000
  11406 WAT       -36.9320  -76.1660   -8.3330 O         1 <0>         0.0000
  11407 WAT       -36.9320  -76.1660   -8.0830 O         1 <0>         0.0000
  11408 WAT       -36.9320  -76.1660   -7.8330 O         1 <0>         0.0000
  11409 WAT       -36.9320  -76.1660   -7.5830 O         1 <0>         0.0000
  11410 WAT       -36.9320  -76.1660   -7.3330 O         1 <0>         0.0000
  11411 WAT       -36.9320  -76.1660   -7.0830 O         1 <0>         0.0000
  11412 WAT       -36.9320  -76.1660   -6.8330 O         1 <0>         0.0000
  11413 WAT       -36.9320  -76.1660   -6.5830 O         1 <0>         0.0000
  11414 WAT       -36.9320  -76.1660   -6.3330 O         1 <0>         0.0000
  11415 WAT       -36.9320  -76.1660   -6.0830 O         1 <0>         0.0000
  11416 WAT       -36.9320  -76.1660   -5.8330 O         1 <0>         0.0000
  11417 WAT       -36.9320  -76.1660   -5.5830 O         1 <0>         0.0000
  11418 WAT       -36.9320  -76.1660   -5.3330 O         1 <0>         0.0000
  11419 WAT       -36.9320  -76.1660   -5.0830 O         1 <0>         0.0000
  11420 WAT       -36.9320  -76.1660   -4.8330 O         1 <0>         0.0000
  11421 WAT       -36.9320  -76.1660   -4.5830 O         1 <0>         0.0000
  11422 WAT       -36.9320  -76.1660   -4.3330 O         1 <0>         0.0000
  11423 WAT       -36.9320  -76.1660   -4.0830 O         1 <0>         0.0000
  11424 WAT       -36.9320  -76.1660   -3.8330 O         1 <0>         0.0000
  11425 WAT       -36.9320  -76.1660   -3.5830 O         1 <0>         0.0000
  11426 WAT       -36.9320  -76.1660   -3.3330 O         1 <0>         0.0000
  11427 WAT       -36.9320  -76.1660   -3.0830 O         1 <0>         0.0000
  11428 WAT       -36.9320  -76.1660   -2.8330 O         1 <0>         0.0000
  11429 WAT       -36.9320  -76.1660   -2.5830 O         1 <0>         0.0000
  11430 WAT       -36.9320  -76.1660   -2.3330 O         1 <0>         0.0000
  11431 WAT       -36.9320  -76.1660   -2.0830 O         1 <0>         0.0000
  11432 WAT       -36.9320  -76.1660   -1.8330 O         1 <0>         0.0000
  11433 WAT       -36.9320  -76.1660   -1.5830 O         1 <0>         0.0000
  11434 WAT       -36.9320  -76.1660   -1.3330 O         1 <0>         0.0000
  11435 WAT       -36.9320  -76.1660   -1.0830 O         1 <0>         0.0000
  11436 WAT       -36.9320  -76.1660   -0.8330 O         1 <0>         0.0000
  11437 WAT       -36.9320  -76.1660   -0.5830 O         1 <0>         0.0000
  11438 WAT       -36.9320  -76.1660   -0.3330 O         1 <0>         0.0000
  11439 WAT       -36.9320  -76.1660   -0.0830 O         1 <0>         0.0000
  11440 WAT       -36.9320  -75.9160   -9.8330 O         1 <0>         0.0000
  11441 WAT       -36.9320  -75.9160   -9.5830 O         1 <0>         0.0000
  11442 WAT       -36.9320  -75.9160   -9.3330 O         1 <0>         0.0000
  11443 WAT       -36.9320  -75.9160   -9.0830 O         1 <0>         0.0000
  11444 WAT       -36.9320  -75.9160   -8.8330 O         1 <0>         0.0000
  11445 WAT       -36.9320  -75.9160   -8.5830 O         1 <0>         0.0000
  11446 WAT       -36.9320  -75.9160   -8.3330 O         1 <0>         0.0000
  11447 WAT       -36.9320  -75.9160   -8.0830 O         1 <0>         0.0000
  11448 WAT       -36.9320  -75.9160   -7.8330 O         1 <0>         0.0000
  11449 WAT       -36.9320  -75.9160   -7.5830 O         1 <0>         0.0000
  11450 WAT       -36.9320  -75.9160   -7.3330 O         1 <0>         0.0000
  11451 WAT       -36.9320  -75.9160   -7.0830 O         1 <0>         0.0000
  11452 WAT       -36.9320  -75.9160   -6.8330 O         1 <0>         0.0000
  11453 WAT       -36.9320  -75.9160   -6.5830 O         1 <0>         0.0000
  11454 WAT       -36.9320  -75.9160   -6.3330 O         1 <0>         0.0000
  11455 WAT       -36.9320  -75.9160   -6.0830 O         1 <0>         0.0000
  11456 WAT       -36.9320  -75.9160   -5.8330 O         1 <0>         0.0000
  11457 WAT       -36.9320  -75.9160   -5.5830 O         1 <0>         0.0000
  11458 WAT       -36.9320  -75.9160   -5.3330 O         1 <0>         0.0000
  11459 WAT       -36.9320  -75.9160   -5.0830 O         1 <0>         0.0000
  11460 WAT       -36.9320  -75.9160   -4.8330 O         1 <0>         0.0000
  11461 WAT       -36.9320  -75.9160   -4.5830 O         1 <0>         0.0000
  11462 WAT       -36.9320  -75.9160   -4.3330 O         1 <0>         0.0000
  11463 WAT       -36.9320  -75.9160   -4.0830 O         1 <0>         0.0000
  11464 WAT       -36.9320  -75.9160   -3.8330 O         1 <0>         0.0000
  11465 WAT       -36.9320  -75.9160   -3.5830 O         1 <0>         0.0000
  11466 WAT       -36.9320  -75.9160   -3.3330 O         1 <0>         0.0000
  11467 WAT       -36.9320  -75.9160   -3.0830 O         1 <0>         0.0000
  11468 WAT       -36.9320  -75.9160   -2.8330 O         1 <0>         0.0000
  11469 WAT       -36.9320  -75.9160   -2.5830 O         1 <0>         0.0000
  11470 WAT       -36.9320  -75.9160   -2.3330 O         1 <0>         0.0000
  11471 WAT       -36.9320  -75.9160   -2.0830 O         1 <0>         0.0000
  11472 WAT       -36.9320  -75.9160   -1.8330 O         1 <0>         0.0000
  11473 WAT       -36.9320  -75.9160   -1.5830 O         1 <0>         0.0000
  11474 WAT       -36.9320  -75.9160   -1.3330 O         1 <0>         0.0000
  11475 WAT       -36.9320  -75.9160   -1.0830 O         1 <0>         0.0000
  11476 WAT       -36.9320  -75.9160   -0.8330 O         1 <0>         0.0000
  11477 WAT       -36.9320  -75.9160   -0.5830 O         1 <0>         0.0000
  11478 WAT       -36.9320  -75.9160   -0.3330 O         1 <0>         0.0000
  11479 WAT       -36.9320  -75.9160   -0.0830 O         1 <0>         0.0000
  11480 WAT       -36.9320  -75.6660   -9.8330 O         1 <0>         0.0000
  11481 WAT       -36.9320  -75.6660   -9.5830 O         1 <0>         0.0000
  11482 WAT       -36.9320  -75.6660   -9.3330 O         1 <0>         0.0000
  11483 WAT       -36.9320  -75.6660   -9.0830 O         1 <0>         0.0000
  11484 WAT       -36.9320  -75.6660   -8.8330 O         1 <0>         0.0000
  11485 WAT       -36.9320  -75.6660   -8.5830 O         1 <0>         0.0000
  11486 WAT       -36.9320  -75.6660   -8.3330 O         1 <0>         0.0000
  11487 WAT       -36.9320  -75.6660   -8.0830 O         1 <0>         0.0000
  11488 WAT       -36.9320  -75.6660   -7.8330 O         1 <0>         0.0000
  11489 WAT       -36.9320  -75.6660   -7.5830 O         1 <0>         0.0000
  11490 WAT       -36.9320  -75.6660   -7.3330 O         1 <0>         0.0000
  11491 WAT       -36.9320  -75.6660   -7.0830 O         1 <0>         0.0000
  11492 WAT       -36.9320  -75.6660   -6.8330 O         1 <0>         0.0000
  11493 WAT       -36.9320  -75.6660   -6.5830 O         1 <0>         0.0000
  11494 WAT       -36.9320  -75.6660   -6.3330 O         1 <0>         0.0000
  11495 WAT       -36.9320  -75.6660   -6.0830 O         1 <0>         0.0000
  11496 WAT       -36.9320  -75.6660   -5.8330 O         1 <0>         0.0000
  11497 WAT       -36.9320  -75.6660   -5.5830 O         1 <0>         0.0000
  11498 WAT       -36.9320  -75.6660   -5.3330 O         1 <0>         0.0000
  11499 WAT       -36.9320  -75.6660   -5.0830 O         1 <0>         0.0001
  11500 WAT       -36.9320  -75.6660   -4.8330 O         1 <0>         0.0001
  11501 WAT       -36.9320  -75.6660   -4.5830 O         1 <0>         0.0001
  11502 WAT       -36.9320  -75.6660   -4.3330 O         1 <0>         0.0001
  11503 WAT       -36.9320  -75.6660   -4.0830 O         1 <0>         0.0000
  11504 WAT       -36.9320  -75.6660   -3.8330 O         1 <0>         0.0000
  11505 WAT       -36.9320  -75.6660   -3.5830 O         1 <0>         0.0000
  11506 WAT       -36.9320  -75.6660   -3.3330 O         1 <0>         0.0000
  11507 WAT       -36.9320  -75.6660   -3.0830 O         1 <0>         0.0000
  11508 WAT       -36.9320  -75.6660   -2.8330 O         1 <0>         0.0000
  11509 WAT       -36.9320  -75.6660   -2.5830 O         1 <0>         0.0000
  11510 WAT       -36.9320  -75.6660   -2.3330 O         1 <0>         0.0000
  11511 WAT       -36.9320  -75.6660   -2.0830 O         1 <0>         0.0000
  11512 WAT       -36.9320  -75.6660   -1.8330 O         1 <0>         0.0000
  11513 WAT       -36.9320  -75.6660   -1.5830 O         1 <0>         0.0000
  11514 WAT       -36.9320  -75.6660   -1.3330 O         1 <0>         0.0000
  11515 WAT       -36.9320  -75.6660   -1.0830 O         1 <0>         0.0000
  11516 WAT       -36.9320  -75.6660   -0.8330 O         1 <0>         0.0000
  11517 WAT       -36.9320  -75.6660   -0.5830 O         1 <0>         0.0000
  11518 WAT       -36.9320  -75.6660   -0.3330 O         1 <0>         0.0000
  11519 WAT       -36.9320  -75.6660   -0.0830 O         1 <0>         0.0000
  11520 WAT       -36.9320  -75.4160   -9.8330 O         1 <0>         0.0000
  11521 WAT       -36.9320  -75.4160   -9.5830 O         1 <0>         0.0000
  11522 WAT       -36.9320  -75.4160   -9.3330 O         1 <0>         0.0000
  11523 WAT       -36.9320  -75.4160   -9.0830 O         1 <0>         0.0000
  11524 WAT       -36.9320  -75.4160   -8.8330 O         1 <0>         0.0000
  11525 WAT       -36.9320  -75.4160   -8.5830 O         1 <0>         0.0000
  11526 WAT       -36.9320  -75.4160   -8.3330 O         1 <0>         0.0000
  11527 WAT       -36.9320  -75.4160   -8.0830 O         1 <0>         0.0000
  11528 WAT       -36.9320  -75.4160   -7.8330 O         1 <0>         0.0000
  11529 WAT       -36.9320  -75.4160   -7.5830 O         1 <0>         0.0000
  11530 WAT       -36.9320  -75.4160   -7.3330 O         1 <0>         0.0000
  11531 WAT       -36.9320  -75.4160   -7.0830 O         1 <0>         0.0000
  11532 WAT       -36.9320  -75.4160   -6.8330 O         1 <0>         0.0000
  11533 WAT       -36.9320  -75.4160   -6.5830 O         1 <0>         0.0000
  11534 WAT       -36.9320  -75.4160   -6.3330 O         1 <0>         0.0000
  11535 WAT       -36.9320  -75.4160   -6.0830 O         1 <0>         0.0000
  11536 WAT       -36.9320  -75.4160   -5.8330 O         1 <0>         0.0000
  11537 WAT       -36.9320  -75.4160   -5.5830 O         1 <0>         0.0000
  11538 WAT       -36.9320  -75.4160   -5.3330 O         1 <0>         0.0002
  11539 WAT       -36.9320  -75.4160   -5.0830 O         1 <0>         0.0004
  11540 WAT       -36.9320  -75.4160   -4.8330 O         1 <0>         0.0005
  11541 WAT       -36.9320  -75.4160   -4.5830 O         1 <0>         0.0005
  11542 WAT       -36.9320  -75.4160   -4.3330 O         1 <0>         0.0004
  11543 WAT       -36.9320  -75.4160   -4.0830 O         1 <0>         0.0002
  11544 WAT       -36.9320  -75.4160   -3.8330 O         1 <0>         0.0001
  11545 WAT       -36.9320  -75.4160   -3.5830 O         1 <0>         0.0000
  11546 WAT       -36.9320  -75.4160   -3.3330 O         1 <0>         0.0000
  11547 WAT       -36.9320  -75.4160   -3.0830 O         1 <0>         0.0000
  11548 WAT       -36.9320  -75.4160   -2.8330 O         1 <0>         0.0000
  11549 WAT       -36.9320  -75.4160   -2.5830 O         1 <0>         0.0000
  11550 WAT       -36.9320  -75.4160   -2.3330 O         1 <0>         0.0000
  11551 WAT       -36.9320  -75.4160   -2.0830 O         1 <0>         0.0000
  11552 WAT       -36.9320  -75.4160   -1.8330 O         1 <0>         0.0000
  11553 WAT       -36.9320  -75.4160   -1.5830 O         1 <0>         0.0000
  11554 WAT       -36.9320  -75.4160   -1.3330 O         1 <0>         0.0000
  11555 WAT       -36.9320  -75.4160   -1.0830 O         1 <0>         0.0000
  11556 WAT       -36.9320  -75.4160   -0.8330 O         1 <0>         0.0000
  11557 WAT       -36.9320  -75.4160   -0.5830 O         1 <0>         0.0000
  11558 WAT       -36.9320  -75.4160   -0.3330 O         1 <0>         0.0000
  11559 WAT       -36.9320  -75.4160   -0.0830 O         1 <0>         0.0000
  11560 WAT       -36.9320  -75.1660   -9.8330 O         1 <0>         0.0000
  11561 WAT       -36.9320  -75.1660   -9.5830 O         1 <0>         0.0000
  11562 WAT       -36.9320  -75.1660   -9.3330 O         1 <0>         0.0000
  11563 WAT       -36.9320  -75.1660   -9.0830 O         1 <0>         0.0000
  11564 WAT       -36.9320  -75.1660   -8.8330 O         1 <0>         0.0000
  11565 WAT       -36.9320  -75.1660   -8.5830 O         1 <0>         0.0000
  11566 WAT       -36.9320  -75.1660   -8.3330 O         1 <0>         0.0000
  11567 WAT       -36.9320  -75.1660   -8.0830 O         1 <0>         0.0000
  11568 WAT       -36.9320  -75.1660   -7.8330 O         1 <0>         0.0000
  11569 WAT       -36.9320  -75.1660   -7.5830 O         1 <0>         0.0000
  11570 WAT       -36.9320  -75.1660   -7.3330 O         1 <0>         0.0000
  11571 WAT       -36.9320  -75.1660   -7.0830 O         1 <0>         0.0000
  11572 WAT       -36.9320  -75.1660   -6.8330 O         1 <0>         0.0000
  11573 WAT       -36.9320  -75.1660   -6.5830 O         1 <0>         0.0000
  11574 WAT       -36.9320  -75.1660   -6.3330 O         1 <0>         0.0000
  11575 WAT       -36.9320  -75.1660   -6.0830 O         1 <0>         0.0000
  11576 WAT       -36.9320  -75.1660   -5.8330 O         1 <0>         0.0001
  11577 WAT       -36.9320  -75.1660   -5.5830 O         1 <0>         0.0003
  11578 WAT       -36.9320  -75.1660   -5.3330 O         1 <0>         0.0006
  11579 WAT       -36.9320  -75.1660   -5.0830 O         1 <0>         0.0012
  11580 WAT       -36.9320  -75.1660   -4.8330 O         1 <0>         0.0017
  11581 WAT       -36.9320  -75.1660   -4.5830 O         1 <0>         0.0018
  11582 WAT       -36.9320  -75.1660   -4.3330 O         1 <0>         0.0013
  11583 WAT       -36.9320  -75.1660   -4.0830 O         1 <0>         0.0007
  11584 WAT       -36.9320  -75.1660   -3.8330 O         1 <0>         0.0003
  11585 WAT       -36.9320  -75.1660   -3.5830 O         1 <0>         0.0001
  11586 WAT       -36.9320  -75.1660   -3.3330 O         1 <0>         0.0000
  11587 WAT       -36.9320  -75.1660   -3.0830 O         1 <0>         0.0000
  11588 WAT       -36.9320  -75.1660   -2.8330 O         1 <0>         0.0000
  11589 WAT       -36.9320  -75.1660   -2.5830 O         1 <0>         0.0000
  11590 WAT       -36.9320  -75.1660   -2.3330 O         1 <0>         0.0000
  11591 WAT       -36.9320  -75.1660   -2.0830 O         1 <0>         0.0000
  11592 WAT       -36.9320  -75.1660   -1.8330 O         1 <0>         0.0000
  11593 WAT       -36.9320  -75.1660   -1.5830 O         1 <0>         0.0000
  11594 WAT       -36.9320  -75.1660   -1.3330 O         1 <0>         0.0000
  11595 WAT       -36.9320  -75.1660   -1.0830 O         1 <0>         0.0000
  11596 WAT       -36.9320  -75.1660   -0.8330 O         1 <0>         0.0000
  11597 WAT       -36.9320  -75.1660   -0.5830 O         1 <0>         0.0000
  11598 WAT       -36.9320  -75.1660   -0.3330 O         1 <0>         0.0000
  11599 WAT       -36.9320  -75.1660   -0.0830 O         1 <0>         0.0000
  11600 WAT       -36.9320  -74.9160   -9.8330 O         1 <0>         0.0000
  11601 WAT       -36.9320  -74.9160   -9.5830 O         1 <0>         0.0000
  11602 WAT       -36.9320  -74.9160   -9.3330 O         1 <0>         0.0000
  11603 WAT       -36.9320  -74.9160   -9.0830 O         1 <0>         0.0000
  11604 WAT       -36.9320  -74.9160   -8.8330 O         1 <0>         0.0000
  11605 WAT       -36.9320  -74.9160   -8.5830 O         1 <0>         0.0000
  11606 WAT       -36.9320  -74.9160   -8.3330 O         1 <0>         0.0000
  11607 WAT       -36.9320  -74.9160   -8.0830 O         1 <0>         0.0000
  11608 WAT       -36.9320  -74.9160   -7.8330 O         1 <0>         0.0000
  11609 WAT       -36.9320  -74.9160   -7.5830 O         1 <0>         0.0000
  11610 WAT       -36.9320  -74.9160   -7.3330 O         1 <0>         0.0000
  11611 WAT       -36.9320  -74.9160   -7.0830 O         1 <0>         0.0000
  11612 WAT       -36.9320  -74.9160   -6.8330 O         1 <0>         0.0000
  11613 WAT       -36.9320  -74.9160   -6.5830 O         1 <0>         0.0000
  11614 WAT       -36.9320  -74.9160   -6.3330 O         1 <0>         0.0000
  11615 WAT       -36.9320  -74.9160   -6.0830 O         1 <0>         0.0002
  11616 WAT       -36.9320  -74.9160   -5.8330 O         1 <0>         0.0005
  11617 WAT       -36.9320  -74.9160   -5.5830 O         1 <0>         0.0010
  11618 WAT       -36.9320  -74.9160   -5.3330 O         1 <0>         0.0018
  11619 WAT       -36.9320  -74.9160   -5.0830 O         1 <0>         0.0030
  11620 WAT       -36.9320  -74.9160   -4.8330 O         1 <0>         0.0040
  11621 WAT       -36.9320  -74.9160   -4.5830 O         1 <0>         0.0041
  11622 WAT       -36.9320  -74.9160   -4.3330 O         1 <0>         0.0031
  11623 WAT       -36.9320  -74.9160   -4.0830 O         1 <0>         0.0018
  11624 WAT       -36.9320  -74.9160   -3.8330 O         1 <0>         0.0008
  11625 WAT       -36.9320  -74.9160   -3.5830 O         1 <0>         0.0003
  11626 WAT       -36.9320  -74.9160   -3.3330 O         1 <0>         0.0001
  11627 WAT       -36.9320  -74.9160   -3.0830 O         1 <0>         0.0000
  11628 WAT       -36.9320  -74.9160   -2.8330 O         1 <0>         0.0000
  11629 WAT       -36.9320  -74.9160   -2.5830 O         1 <0>         0.0000
  11630 WAT       -36.9320  -74.9160   -2.3330 O         1 <0>         0.0000
  11631 WAT       -36.9320  -74.9160   -2.0830 O         1 <0>         0.0000
  11632 WAT       -36.9320  -74.9160   -1.8330 O         1 <0>         0.0000
  11633 WAT       -36.9320  -74.9160   -1.5830 O         1 <0>         0.0000
  11634 WAT       -36.9320  -74.9160   -1.3330 O         1 <0>         0.0000
  11635 WAT       -36.9320  -74.9160   -1.0830 O         1 <0>         0.0000
  11636 WAT       -36.9320  -74.9160   -0.8330 O         1 <0>         0.0000
  11637 WAT       -36.9320  -74.9160   -0.5830 O         1 <0>         0.0000
  11638 WAT       -36.9320  -74.9160   -0.3330 O         1 <0>         0.0000
  11639 WAT       -36.9320  -74.9160   -0.0830 O         1 <0>         0.0000
  11640 WAT       -36.9320  -74.6660   -9.8330 O         1 <0>         0.0000
  11641 WAT       -36.9320  -74.6660   -9.5830 O         1 <0>         0.0000
  11642 WAT       -36.9320  -74.6660   -9.3330 O         1 <0>         0.0000
  11643 WAT       -36.9320  -74.6660   -9.0830 O         1 <0>         0.0000
  11644 WAT       -36.9320  -74.6660   -8.8330 O         1 <0>         0.0000
  11645 WAT       -36.9320  -74.6660   -8.5830 O         1 <0>         0.0000
  11646 WAT       -36.9320  -74.6660   -8.3330 O         1 <0>         0.0000
  11647 WAT       -36.9320  -74.6660   -8.0830 O         1 <0>         0.0000
  11648 WAT       -36.9320  -74.6660   -7.8330 O         1 <0>         0.0000
  11649 WAT       -36.9320  -74.6660   -7.5830 O         1 <0>         0.0000
  11650 WAT       -36.9320  -74.6660   -7.3330 O         1 <0>         0.0000
  11651 WAT       -36.9320  -74.6660   -7.0830 O         1 <0>         0.0000
  11652 WAT       -36.9320  -74.6660   -6.8330 O         1 <0>         0.0000
  11653 WAT       -36.9320  -74.6660   -6.5830 O         1 <0>         0.0001
  11654 WAT       -36.9320  -74.6660   -6.3330 O         1 <0>         0.0003
  11655 WAT       -36.9320  -74.6660   -6.0830 O         1 <0>         0.0009
  11656 WAT       -36.9320  -74.6660   -5.8330 O         1 <0>         0.0018
  11657 WAT       -36.9320  -74.6660   -5.5830 O         1 <0>         0.0028
  11658 WAT       -36.9320  -74.6660   -5.3330 O         1 <0>         0.0042
  11659 WAT       -36.9320  -74.6660   -5.0830 O         1 <0>         0.0058
  11660 WAT       -36.9320  -74.6660   -4.8330 O         1 <0>         0.0070
  11661 WAT       -36.9320  -74.6660   -4.5830 O         1 <0>         0.0069
  11662 WAT       -36.9320  -74.6660   -4.3330 O         1 <0>         0.0054
  11663 WAT       -36.9320  -74.6660   -4.0830 O         1 <0>         0.0032
  11664 WAT       -36.9320  -74.6660   -3.8330 O         1 <0>         0.0015
  11665 WAT       -36.9320  -74.6660   -3.5830 O         1 <0>         0.0006
  11666 WAT       -36.9320  -74.6660   -3.3330 O         1 <0>         0.0002
  11667 WAT       -36.9320  -74.6660   -3.0830 O         1 <0>         0.0000
  11668 WAT       -36.9320  -74.6660   -2.8330 O         1 <0>         0.0000
  11669 WAT       -36.9320  -74.6660   -2.5830 O         1 <0>         0.0000
  11670 WAT       -36.9320  -74.6660   -2.3330 O         1 <0>         0.0000
  11671 WAT       -36.9320  -74.6660   -2.0830 O         1 <0>         0.0000
  11672 WAT       -36.9320  -74.6660   -1.8330 O         1 <0>         0.0000
  11673 WAT       -36.9320  -74.6660   -1.5830 O         1 <0>         0.0000
  11674 WAT       -36.9320  -74.6660   -1.3330 O         1 <0>         0.0000
  11675 WAT       -36.9320  -74.6660   -1.0830 O         1 <0>         0.0000
  11676 WAT       -36.9320  -74.6660   -0.8330 O         1 <0>         0.0000
  11677 WAT       -36.9320  -74.6660   -0.5830 O         1 <0>         0.0000
  11678 WAT       -36.9320  -74.6660   -0.3330 O         1 <0>         0.0000
  11679 WAT       -36.9320  -74.6660   -0.0830 O         1 <0>         0.0000
  11680 WAT       -36.9320  -74.4160   -9.8330 O         1 <0>         0.0000
  11681 WAT       -36.9320  -74.4160   -9.5830 O         1 <0>         0.0000
  11682 WAT       -36.9320  -74.4160   -9.3330 O         1 <0>         0.0000
  11683 WAT       -36.9320  -74.4160   -9.0830 O         1 <0>         0.0000
  11684 WAT       -36.9320  -74.4160   -8.8330 O         1 <0>         0.0000
  11685 WAT       -36.9320  -74.4160   -8.5830 O         1 <0>         0.0000
  11686 WAT       -36.9320  -74.4160   -8.3330 O         1 <0>         0.0000
  11687 WAT       -36.9320  -74.4160   -8.0830 O         1 <0>         0.0000
  11688 WAT       -36.9320  -74.4160   -7.8330 O         1 <0>         0.0000
  11689 WAT       -36.9320  -74.4160   -7.5830 O         1 <0>         0.0000
  11690 WAT       -36.9320  -74.4160   -7.3330 O         1 <0>         0.0000
  11691 WAT       -36.9320  -74.4160   -7.0830 O         1 <0>         0.0000
  11692 WAT       -36.9320  -74.4160   -6.8330 O         1 <0>         0.0000
  11693 WAT       -36.9320  -74.4160   -6.5830 O         1 <0>         0.0004
  11694 WAT       -36.9320  -74.4160   -6.3330 O         1 <0>         0.0016
  11695 WAT       -36.9320  -74.4160   -6.0830 O         1 <0>         0.0038
  11696 WAT       -36.9320  -74.4160   -5.8330 O         1 <0>         0.0058
  11697 WAT       -36.9320  -74.4160   -5.5830 O         1 <0>         0.0071
  11698 WAT       -36.9320  -74.4160   -5.3330 O         1 <0>         0.0080
  11699 WAT       -36.9320  -74.4160   -5.0830 O         1 <0>         0.0090
  11700 WAT       -36.9320  -74.4160   -4.8330 O         1 <0>         0.0097
  11701 WAT       -36.9320  -74.4160   -4.5830 O         1 <0>         0.0090
  11702 WAT       -36.9320  -74.4160   -4.3330 O         1 <0>         0.0068
  11703 WAT       -36.9320  -74.4160   -4.0830 O         1 <0>         0.0042
  11704 WAT       -36.9320  -74.4160   -3.8330 O         1 <0>         0.0021
  11705 WAT       -36.9320  -74.4160   -3.5830 O         1 <0>         0.0008
  11706 WAT       -36.9320  -74.4160   -3.3330 O         1 <0>         0.0003
  11707 WAT       -36.9320  -74.4160   -3.0830 O         1 <0>         0.0001
  11708 WAT       -36.9320  -74.4160   -2.8330 O         1 <0>         0.0000
  11709 WAT       -36.9320  -74.4160   -2.5830 O         1 <0>         0.0000
  11710 WAT       -36.9320  -74.4160   -2.3330 O         1 <0>         0.0000
  11711 WAT       -36.9320  -74.4160   -2.0830 O         1 <0>         0.0000
  11712 WAT       -36.9320  -74.4160   -1.8330 O         1 <0>         0.0000
  11713 WAT       -36.9320  -74.4160   -1.5830 O         1 <0>         0.0000
  11714 WAT       -36.9320  -74.4160   -1.3330 O         1 <0>         0.0000
  11715 WAT       -36.9320  -74.4160   -1.0830 O         1 <0>         0.0000
  11716 WAT       -36.9320  -74.4160   -0.8330 O         1 <0>         0.0000
  11717 WAT       -36.9320  -74.4160   -0.5830 O         1 <0>         0.0000
  11718 WAT       -36.9320  -74.4160   -0.3330 O         1 <0>         0.0000
  11719 WAT       -36.9320  -74.4160   -0.0830 O         1 <0>         0.0000
  11720 WAT       -36.9320  -74.1660   -9.8330 O         1 <0>         0.0000
  11721 WAT       -36.9320  -74.1660   -9.5830 O         1 <0>         0.0000
  11722 WAT       -36.9320  -74.1660   -9.3330 O         1 <0>         0.0000
  11723 WAT       -36.9320  -74.1660   -9.0830 O         1 <0>         0.0000
  11724 WAT       -36.9320  -74.1660   -8.8330 O         1 <0>         0.0000
  11725 WAT       -36.9320  -74.1660   -8.5830 O         1 <0>         0.0000
  11726 WAT       -36.9320  -74.1660   -8.3330 O         1 <0>         0.0000
  11727 WAT       -36.9320  -74.1660   -8.0830 O         1 <0>         0.0000
  11728 WAT       -36.9320  -74.1660   -7.8330 O         1 <0>         0.0000
  11729 WAT       -36.9320  -74.1660   -7.5830 O         1 <0>         0.0000
  11730 WAT       -36.9320  -74.1660   -7.3330 O         1 <0>         0.0000
  11731 WAT       -36.9320  -74.1660   -7.0830 O         1 <0>         0.0000
  11732 WAT       -36.9320  -74.1660   -6.8330 O         1 <0>         0.0002
  11733 WAT       -36.9320  -74.1660   -6.5830 O         1 <0>         0.0014
  11734 WAT       -36.9320  -74.1660   -6.3330 O         1 <0>         0.0049
  11735 WAT       -36.9320  -74.1660   -6.0830 O         1 <0>         0.0099
  11736 WAT       -36.9320  -74.1660   -5.8330 O         1 <0>         0.0139
  11737 WAT       -36.9320  -74.1660   -5.5830 O         1 <0>         0.0145
  11738 WAT       -36.9320  -74.1660   -5.3330 O         1 <0>         0.0130
  11739 WAT       -36.9320  -74.1660   -5.0830 O         1 <0>         0.0116
  11740 WAT       -36.9320  -74.1660   -4.8330 O         1 <0>         0.0106
  11741 WAT       -36.9320  -74.1660   -4.5830 O         1 <0>         0.0090
  11742 WAT       -36.9320  -74.1660   -4.3330 O         1 <0>         0.0065
  11743 WAT       -36.9320  -74.1660   -4.0830 O         1 <0>         0.0039
  11744 WAT       -36.9320  -74.1660   -3.8330 O         1 <0>         0.0020
  11745 WAT       -36.9320  -74.1660   -3.5830 O         1 <0>         0.0008
  11746 WAT       -36.9320  -74.1660   -3.3330 O         1 <0>         0.0003
  11747 WAT       -36.9320  -74.1660   -3.0830 O         1 <0>         0.0001
  11748 WAT       -36.9320  -74.1660   -2.8330 O         1 <0>         0.0000
  11749 WAT       -36.9320  -74.1660   -2.5830 O         1 <0>         0.0000
  11750 WAT       -36.9320  -74.1660   -2.3330 O         1 <0>         0.0000
  11751 WAT       -36.9320  -74.1660   -2.0830 O         1 <0>         0.0000
  11752 WAT       -36.9320  -74.1660   -1.8330 O         1 <0>         0.0000
  11753 WAT       -36.9320  -74.1660   -1.5830 O         1 <0>         0.0000
  11754 WAT       -36.9320  -74.1660   -1.3330 O         1 <0>         0.0000
  11755 WAT       -36.9320  -74.1660   -1.0830 O         1 <0>         0.0000
  11756 WAT       -36.9320  -74.1660   -0.8330 O         1 <0>         0.0000
  11757 WAT       -36.9320  -74.1660   -0.5830 O         1 <0>         0.0000
  11758 WAT       -36.9320  -74.1660   -0.3330 O         1 <0>         0.0000
  11759 WAT       -36.9320  -74.1660   -0.0830 O         1 <0>         0.0000
  11760 WAT       -36.9320  -73.9160   -9.8330 O         1 <0>         0.0000
  11761 WAT       -36.9320  -73.9160   -9.5830 O         1 <0>         0.0000
  11762 WAT       -36.9320  -73.9160   -9.3330 O         1 <0>         0.0000
  11763 WAT       -36.9320  -73.9160   -9.0830 O         1 <0>         0.0000
  11764 WAT       -36.9320  -73.9160   -8.8330 O         1 <0>         0.0000
  11765 WAT       -36.9320  -73.9160   -8.5830 O         1 <0>         0.0000
  11766 WAT       -36.9320  -73.9160   -8.3330 O         1 <0>         0.0000
  11767 WAT       -36.9320  -73.9160   -8.0830 O         1 <0>         0.0000
  11768 WAT       -36.9320  -73.9160   -7.8330 O         1 <0>         0.0000
  11769 WAT       -36.9320  -73.9160   -7.5830 O         1 <0>         0.0000
  11770 WAT       -36.9320  -73.9160   -7.3330 O         1 <0>         0.0000
  11771 WAT       -36.9320  -73.9160   -7.0830 O         1 <0>         0.0000
  11772 WAT       -36.9320  -73.9160   -6.8330 O         1 <0>         0.0005
  11773 WAT       -36.9320  -73.9160   -6.5830 O         1 <0>         0.0030
  11774 WAT       -36.9320  -73.9160   -6.3330 O         1 <0>         0.0092
  11775 WAT       -36.9320  -73.9160   -6.0830 O         1 <0>         0.0179
  11776 WAT       -36.9320  -73.9160   -5.8330 O         1 <0>         0.0237
  11777 WAT       -36.9320  -73.9160   -5.5830 O         1 <0>         0.0226
  11778 WAT       -36.9320  -73.9160   -5.3330 O         1 <0>         0.0172
  11779 WAT       -36.9320  -73.9160   -5.0830 O         1 <0>         0.0121
  11780 WAT       -36.9320  -73.9160   -4.8330 O         1 <0>         0.0089
  11781 WAT       -36.9320  -73.9160   -4.5830 O         1 <0>         0.0067
  11782 WAT       -36.9320  -73.9160   -4.3330 O         1 <0>         0.0045
  11783 WAT       -36.9320  -73.9160   -4.0830 O         1 <0>         0.0026
  11784 WAT       -36.9320  -73.9160   -3.8330 O         1 <0>         0.0013
  11785 WAT       -36.9320  -73.9160   -3.5830 O         1 <0>         0.0005
  11786 WAT       -36.9320  -73.9160   -3.3330 O         1 <0>         0.0002
  11787 WAT       -36.9320  -73.9160   -3.0830 O         1 <0>         0.0001
  11788 WAT       -36.9320  -73.9160   -2.8330 O         1 <0>         0.0000
  11789 WAT       -36.9320  -73.9160   -2.5830 O         1 <0>         0.0000
  11790 WAT       -36.9320  -73.9160   -2.3330 O         1 <0>         0.0000
  11791 WAT       -36.9320  -73.9160   -2.0830 O         1 <0>         0.0000
  11792 WAT       -36.9320  -73.9160   -1.8330 O         1 <0>         0.0000
  11793 WAT       -36.9320  -73.9160   -1.5830 O         1 <0>         0.0000
  11794 WAT       -36.9320  -73.9160   -1.3330 O         1 <0>         0.0000
  11795 WAT       -36.9320  -73.9160   -1.0830 O         1 <0>         0.0000
  11796 WAT       -36.9320  -73.9160   -0.8330 O         1 <0>         0.0000
  11797 WAT       -36.9320  -73.9160   -0.5830 O         1 <0>         0.0000
  11798 WAT       -36.9320  -73.9160   -0.3330 O         1 <0>         0.0000
  11799 WAT       -36.9320  -73.9160   -0.0830 O         1 <0>         0.0000
  11800 WAT       -36.9320  -73.6660   -9.8330 O         1 <0>         0.0000
  11801 WAT       -36.9320  -73.6660   -9.5830 O         1 <0>         0.0000
  11802 WAT       -36.9320  -73.6660   -9.3330 O         1 <0>         0.0000
  11803 WAT       -36.9320  -73.6660   -9.0830 O         1 <0>         0.0000
  11804 WAT       -36.9320  -73.6660   -8.8330 O         1 <0>         0.0000
  11805 WAT       -36.9320  -73.6660   -8.5830 O         1 <0>         0.0000
  11806 WAT       -36.9320  -73.6660   -8.3330 O         1 <0>         0.0000
  11807 WAT       -36.9320  -73.6660   -8.0830 O         1 <0>         0.0000
  11808 WAT       -36.9320  -73.6660   -7.8330 O         1 <0>         0.0000
  11809 WAT       -36.9320  -73.6660   -7.5830 O         1 <0>         0.0000
  11810 WAT       -36.9320  -73.6660   -7.3330 O         1 <0>         0.0000
  11811 WAT       -36.9320  -73.6660   -7.0830 O         1 <0>         0.0001
  11812 WAT       -36.9320  -73.6660   -6.8330 O         1 <0>         0.0006
  11813 WAT       -36.9320  -73.6660   -6.5830 O         1 <0>         0.0039
  11814 WAT       -36.9320  -73.6660   -6.3330 O         1 <0>         0.0116
  11815 WAT       -36.9320  -73.6660   -6.0830 O         1 <0>         0.0222
  11816 WAT       -36.9320  -73.6660   -5.8330 O         1 <0>         0.0286
  11817 WAT       -36.9320  -73.6660   -5.5830 O         1 <0>         0.0259
  11818 WAT       -36.9320  -73.6660   -5.3330 O         1 <0>         0.0175
  11819 WAT       -36.9320  -73.6660   -5.0830 O         1 <0>         0.0100
  11820 WAT       -36.9320  -73.6660   -4.8330 O         1 <0>         0.0058
  11821 WAT       -36.9320  -73.6660   -4.5830 O         1 <0>         0.0035
  11822 WAT       -36.9320  -73.6660   -4.3330 O         1 <0>         0.0022
  11823 WAT       -36.9320  -73.6660   -4.0830 O         1 <0>         0.0012
  11824 WAT       -36.9320  -73.6660   -3.8330 O         1 <0>         0.0005
  11825 WAT       -36.9320  -73.6660   -3.5830 O         1 <0>         0.0002
  11826 WAT       -36.9320  -73.6660   -3.3330 O         1 <0>         0.0001
  11827 WAT       -36.9320  -73.6660   -3.0830 O         1 <0>         0.0000
  11828 WAT       -36.9320  -73.6660   -2.8330 O         1 <0>         0.0000
  11829 WAT       -36.9320  -73.6660   -2.5830 O         1 <0>         0.0000
  11830 WAT       -36.9320  -73.6660   -2.3330 O         1 <0>         0.0000
  11831 WAT       -36.9320  -73.6660   -2.0830 O         1 <0>         0.0000
  11832 WAT       -36.9320  -73.6660   -1.8330 O         1 <0>         0.0000
  11833 WAT       -36.9320  -73.6660   -1.5830 O         1 <0>         0.0000
  11834 WAT       -36.9320  -73.6660   -1.3330 O         1 <0>         0.0000
  11835 WAT       -36.9320  -73.6660   -1.0830 O         1 <0>         0.0000
  11836 WAT       -36.9320  -73.6660   -0.8330 O         1 <0>         0.0000
  11837 WAT       -36.9320  -73.6660   -0.5830 O         1 <0>         0.0000
  11838 WAT       -36.9320  -73.6660   -0.3330 O         1 <0>         0.0000
  11839 WAT       -36.9320  -73.6660   -0.0830 O         1 <0>         0.0000
  11840 WAT       -36.9320  -73.4160   -9.8330 O         1 <0>         0.0000
  11841 WAT       -36.9320  -73.4160   -9.5830 O         1 <0>         0.0000
  11842 WAT       -36.9320  -73.4160   -9.3330 O         1 <0>         0.0000
  11843 WAT       -36.9320  -73.4160   -9.0830 O         1 <0>         0.0000
  11844 WAT       -36.9320  -73.4160   -8.8330 O         1 <0>         0.0000
  11845 WAT       -36.9320  -73.4160   -8.5830 O         1 <0>         0.0000
  11846 WAT       -36.9320  -73.4160   -8.3330 O         1 <0>         0.0000
  11847 WAT       -36.9320  -73.4160   -8.0830 O         1 <0>         0.0000
  11848 WAT       -36.9320  -73.4160   -7.8330 O         1 <0>         0.0000
  11849 WAT       -36.9320  -73.4160   -7.5830 O         1 <0>         0.0000
  11850 WAT       -36.9320  -73.4160   -7.3330 O         1 <0>         0.0000
  11851 WAT       -36.9320  -73.4160   -7.0830 O         1 <0>         0.0000
  11852 WAT       -36.9320  -73.4160   -6.8330 O         1 <0>         0.0005
  11853 WAT       -36.9320  -73.4160   -6.5830 O         1 <0>         0.0031
  11854 WAT       -36.9320  -73.4160   -6.3330 O         1 <0>         0.0098
  11855 WAT       -36.9320  -73.4160   -6.0830 O         1 <0>         0.0188
  11856 WAT       -36.9320  -73.4160   -5.8330 O         1 <0>         0.0240
  11857 WAT       -36.9320  -73.4160   -5.5830 O         1 <0>         0.0211
  11858 WAT       -36.9320  -73.4160   -5.3330 O         1 <0>         0.0132
  11859 WAT       -36.9320  -73.4160   -5.0830 O         1 <0>         0.0064
  11860 WAT       -36.9320  -73.4160   -4.8330 O         1 <0>         0.0028
  11861 WAT       -36.9320  -73.4160   -4.5830 O         1 <0>         0.0013
  11862 WAT       -36.9320  -73.4160   -4.3330 O         1 <0>         0.0006
  11863 WAT       -36.9320  -73.4160   -4.0830 O         1 <0>         0.0003
  11864 WAT       -36.9320  -73.4160   -3.8330 O         1 <0>         0.0001
  11865 WAT       -36.9320  -73.4160   -3.5830 O         1 <0>         0.0000
  11866 WAT       -36.9320  -73.4160   -3.3330 O         1 <0>         0.0000
  11867 WAT       -36.9320  -73.4160   -3.0830 O         1 <0>         0.0000
  11868 WAT       -36.9320  -73.4160   -2.8330 O         1 <0>         0.0000
  11869 WAT       -36.9320  -73.4160   -2.5830 O         1 <0>         0.0000
  11870 WAT       -36.9320  -73.4160   -2.3330 O         1 <0>         0.0000
  11871 WAT       -36.9320  -73.4160   -2.0830 O         1 <0>         0.0000
  11872 WAT       -36.9320  -73.4160   -1.8330 O         1 <0>         0.0000
  11873 WAT       -36.9320  -73.4160   -1.5830 O         1 <0>         0.0000
  11874 WAT       -36.9320  -73.4160   -1.3330 O         1 <0>         0.0000
  11875 WAT       -36.9320  -73.4160   -1.0830 O         1 <0>         0.0000
  11876 WAT       -36.9320  -73.4160   -0.8330 O         1 <0>         0.0000
  11877 WAT       -36.9320  -73.4160   -0.5830 O         1 <0>         0.0000
  11878 WAT       -36.9320  -73.4160   -0.3330 O         1 <0>         0.0000
  11879 WAT       -36.9320  -73.4160   -0.0830 O         1 <0>         0.0000
  11880 WAT       -36.9320  -73.1660   -9.8330 O         1 <0>         0.0000
  11881 WAT       -36.9320  -73.1660   -9.5830 O         1 <0>         0.0000
  11882 WAT       -36.9320  -73.1660   -9.3330 O         1 <0>         0.0000
  11883 WAT       -36.9320  -73.1660   -9.0830 O         1 <0>         0.0000
  11884 WAT       -36.9320  -73.1660   -8.8330 O         1 <0>         0.0000
  11885 WAT       -36.9320  -73.1660   -8.5830 O         1 <0>         0.0000
  11886 WAT       -36.9320  -73.1660   -8.3330 O         1 <0>         0.0000
  11887 WAT       -36.9320  -73.1660   -8.0830 O         1 <0>         0.0000
  11888 WAT       -36.9320  -73.1660   -7.8330 O         1 <0>         0.0000
  11889 WAT       -36.9320  -73.1660   -7.5830 O         1 <0>         0.0000
  11890 WAT       -36.9320  -73.1660   -7.3330 O         1 <0>         0.0000
  11891 WAT       -36.9320  -73.1660   -7.0830 O         1 <0>         0.0000
  11892 WAT       -36.9320  -73.1660   -6.8330 O         1 <0>         0.0002
  11893 WAT       -36.9320  -73.1660   -6.5830 O         1 <0>         0.0016
  11894 WAT       -36.9320  -73.1660   -6.3330 O         1 <0>         0.0054
  11895 WAT       -36.9320  -73.1660   -6.0830 O         1 <0>         0.0108
  11896 WAT       -36.9320  -73.1660   -5.8330 O         1 <0>         0.0138
  11897 WAT       -36.9320  -73.1660   -5.5830 O         1 <0>         0.0119
  11898 WAT       -36.9320  -73.1660   -5.3330 O         1 <0>         0.0070
  11899 WAT       -36.9320  -73.1660   -5.0830 O         1 <0>         0.0029
  11900 WAT       -36.9320  -73.1660   -4.8330 O         1 <0>         0.0009
  11901 WAT       -36.9320  -73.1660   -4.5830 O         1 <0>         0.0003
  11902 WAT       -36.9320  -73.1660   -4.3330 O         1 <0>         0.0001
  11903 WAT       -36.9320  -73.1660   -4.0830 O         1 <0>         0.0000
  11904 WAT       -36.9320  -73.1660   -3.8330 O         1 <0>         0.0000
  11905 WAT       -36.9320  -73.1660   -3.5830 O         1 <0>         0.0000
  11906 WAT       -36.9320  -73.1660   -3.3330 O         1 <0>         0.0000
  11907 WAT       -36.9320  -73.1660   -3.0830 O         1 <0>         0.0000
  11908 WAT       -36.9320  -73.1660   -2.8330 O         1 <0>         0.0000
  11909 WAT       -36.9320  -73.1660   -2.5830 O         1 <0>         0.0000
  11910 WAT       -36.9320  -73.1660   -2.3330 O         1 <0>         0.0000
  11911 WAT       -36.9320  -73.1660   -2.0830 O         1 <0>         0.0000
  11912 WAT       -36.9320  -73.1660   -1.8330 O         1 <0>         0.0000
  11913 WAT       -36.9320  -73.1660   -1.5830 O         1 <0>         0.0000
  11914 WAT       -36.9320  -73.1660   -1.3330 O         1 <0>         0.0000
  11915 WAT       -36.9320  -73.1660   -1.0830 O         1 <0>         0.0000
  11916 WAT       -36.9320  -73.1660   -0.8330 O         1 <0>         0.0000
  11917 WAT       -36.9320  -73.1660   -0.5830 O         1 <0>         0.0000
  11918 WAT       -36.9320  -73.1660   -0.3330 O         1 <0>         0.0000
  11919 WAT       -36.9320  -73.1660   -0.0830 O         1 <0>         0.0000
  11920 WAT       -36.9320  -72.9160   -9.8330 O         1 <0>         0.0000
  11921 WAT       -36.9320  -72.9160   -9.5830 O         1 <0>         0.0000
  11922 WAT       -36.9320  -72.9160   -9.3330 O         1 <0>         0.0000
  11923 WAT       -36.9320  -72.9160   -9.0830 O         1 <0>         0.0000
  11924 WAT       -36.9320  -72.9160   -8.8330 O         1 <0>         0.0000
  11925 WAT       -36.9320  -72.9160   -8.5830 O         1 <0>         0.0000
  11926 WAT       -36.9320  -72.9160   -8.3330 O         1 <0>         0.0000
  11927 WAT       -36.9320  -72.9160   -8.0830 O         1 <0>         0.0000
  11928 WAT       -36.9320  -72.9160   -7.8330 O         1 <0>         0.0000
  11929 WAT       -36.9320  -72.9160   -7.5830 O         1 <0>         0.0000
  11930 WAT       -36.9320  -72.9160   -7.3330 O         1 <0>         0.0000
  11931 WAT       -36.9320  -72.9160   -7.0830 O         1 <0>         0.0000
  11932 WAT       -36.9320  -72.9160   -6.8330 O         1 <0>         0.0000
  11933 WAT       -36.9320  -72.9160   -6.5830 O         1 <0>         0.0004
  11934 WAT       -36.9320  -72.9160   -6.3330 O         1 <0>         0.0018
  11935 WAT       -36.9320  -72.9160   -6.0830 O         1 <0>         0.0039
  11936 WAT       -36.9320  -72.9160   -5.8330 O         1 <0>         0.0052
  11937 WAT       -36.9320  -72.9160   -5.5830 O         1 <0>         0.0045
  11938 WAT       -36.9320  -72.9160   -5.3330 O         1 <0>         0.0025
  11939 WAT       -36.9320  -72.9160   -5.0830 O         1 <0>         0.0009
  11940 WAT       -36.9320  -72.9160   -4.8330 O         1 <0>         0.0002
  11941 WAT       -36.9320  -72.9160   -4.5830 O         1 <0>         0.0000
  11942 WAT       -36.9320  -72.9160   -4.3330 O         1 <0>         0.0000
  11943 WAT       -36.9320  -72.9160   -4.0830 O         1 <0>         0.0000
  11944 WAT       -36.9320  -72.9160   -3.8330 O         1 <0>         0.0000
  11945 WAT       -36.9320  -72.9160   -3.5830 O         1 <0>         0.0000
  11946 WAT       -36.9320  -72.9160   -3.3330 O         1 <0>         0.0000
  11947 WAT       -36.9320  -72.9160   -3.0830 O         1 <0>         0.0000
  11948 WAT       -36.9320  -72.9160   -2.8330 O         1 <0>         0.0000
  11949 WAT       -36.9320  -72.9160   -2.5830 O         1 <0>         0.0000
  11950 WAT       -36.9320  -72.9160   -2.3330 O         1 <0>         0.0000
  11951 WAT       -36.9320  -72.9160   -2.0830 O         1 <0>         0.0000
  11952 WAT       -36.9320  -72.9160   -1.8330 O         1 <0>         0.0000
  11953 WAT       -36.9320  -72.9160   -1.5830 O         1 <0>         0.0000
  11954 WAT       -36.9320  -72.9160   -1.3330 O         1 <0>         0.0000
  11955 WAT       -36.9320  -72.9160   -1.0830 O         1 <0>         0.0000
  11956 WAT       -36.9320  -72.9160   -0.8330 O         1 <0>         0.0000
  11957 WAT       -36.9320  -72.9160   -0.5830 O         1 <0>         0.0000
  11958 WAT       -36.9320  -72.9160   -0.3330 O         1 <0>         0.0000
  11959 WAT       -36.9320  -72.9160   -0.0830 O         1 <0>         0.0000
  11960 WAT       -36.9320  -72.6660   -9.8330 O         1 <0>         0.0000
  11961 WAT       -36.9320  -72.6660   -9.5830 O         1 <0>         0.0000
  11962 WAT       -36.9320  -72.6660   -9.3330 O         1 <0>         0.0000
  11963 WAT       -36.9320  -72.6660   -9.0830 O         1 <0>         0.0000
  11964 WAT       -36.9320  -72.6660   -8.8330 O         1 <0>         0.0000
  11965 WAT       -36.9320  -72.6660   -8.5830 O         1 <0>         0.0000
  11966 WAT       -36.9320  -72.6660   -8.3330 O         1 <0>         0.0000
  11967 WAT       -36.9320  -72.6660   -8.0830 O         1 <0>         0.0000
  11968 WAT       -36.9320  -72.6660   -7.8330 O         1 <0>         0.0000
  11969 WAT       -36.9320  -72.6660   -7.5830 O         1 <0>         0.0000
  11970 WAT       -36.9320  -72.6660   -7.3330 O         1 <0>         0.0000
  11971 WAT       -36.9320  -72.6660   -7.0830 O         1 <0>         0.0000
  11972 WAT       -36.9320  -72.6660   -6.8330 O         1 <0>         0.0000
  11973 WAT       -36.9320  -72.6660   -6.5830 O         1 <0>         0.0000
  11974 WAT       -36.9320  -72.6660   -6.3330 O         1 <0>         0.0003
  11975 WAT       -36.9320  -72.6660   -6.0830 O         1 <0>         0.0009
  11976 WAT       -36.9320  -72.6660   -5.8330 O         1 <0>         0.0012
  11977 WAT       -36.9320  -72.6660   -5.5830 O         1 <0>         0.0010
  11978 WAT       -36.9320  -72.6660   -5.3330 O         1 <0>         0.0005
  11979 WAT       -36.9320  -72.6660   -5.0830 O         1 <0>         0.0002
  11980 WAT       -36.9320  -72.6660   -4.8330 O         1 <0>         0.0000
  11981 WAT       -36.9320  -72.6660   -4.5830 O         1 <0>         0.0000
  11982 WAT       -36.9320  -72.6660   -4.3330 O         1 <0>         0.0000
  11983 WAT       -36.9320  -72.6660   -4.0830 O         1 <0>         0.0000
  11984 WAT       -36.9320  -72.6660   -3.8330 O         1 <0>         0.0000
  11985 WAT       -36.9320  -72.6660   -3.5830 O         1 <0>         0.0000
  11986 WAT       -36.9320  -72.6660   -3.3330 O         1 <0>         0.0000
  11987 WAT       -36.9320  -72.6660   -3.0830 O         1 <0>         0.0000
  11988 WAT       -36.9320  -72.6660   -2.8330 O         1 <0>         0.0000
  11989 WAT       -36.9320  -72.6660   -2.5830 O         1 <0>         0.0000
  11990 WAT       -36.9320  -72.6660   -2.3330 O         1 <0>         0.0000
  11991 WAT       -36.9320  -72.6660   -2.0830 O         1 <0>         0.0000
  11992 WAT       -36.9320  -72.6660   -1.8330 O         1 <0>         0.0000
  11993 WAT       -36.9320  -72.6660   -1.5830 O         1 <0>         0.0000
  11994 WAT       -36.9320  -72.6660   -1.3330 O         1 <0>         0.0000
  11995 WAT       -36.9320  -72.6660   -1.0830 O         1 <0>         0.0000
  11996 WAT       -36.9320  -72.6660   -0.8330 O         1 <0>         0.0000
  11997 WAT       -36.9320  -72.6660   -0.5830 O         1 <0>         0.0000
  11998 WAT       -36.9320  -72.6660   -0.3330 O         1 <0>         0.0000
  11999 WAT       -36.9320  -72.6660   -0.0830 O         1 <0>         0.0000
  12000 WAT       -36.9320  -72.4160   -9.8330 O         1 <0>         0.0000
  12001 WAT       -36.9320  -72.4160   -9.5830 O         1 <0>         0.0000
  12002 WAT       -36.9320  -72.4160   -9.3330 O         1 <0>         0.0000
  12003 WAT       -36.9320  -72.4160   -9.0830 O         1 <0>         0.0000
  12004 WAT       -36.9320  -72.4160   -8.8330 O         1 <0>         0.0000
  12005 WAT       -36.9320  -72.4160   -8.5830 O         1 <0>         0.0000
  12006 WAT       -36.9320  -72.4160   -8.3330 O         1 <0>         0.0000
  12007 WAT       -36.9320  -72.4160   -8.0830 O         1 <0>         0.0000
  12008 WAT       -36.9320  -72.4160   -7.8330 O         1 <0>         0.0000
  12009 WAT       -36.9320  -72.4160   -7.5830 O         1 <0>         0.0000
  12010 WAT       -36.9320  -72.4160   -7.3330 O         1 <0>         0.0000
  12011 WAT       -36.9320  -72.4160   -7.0830 O         1 <0>         0.0000
  12012 WAT       -36.9320  -72.4160   -6.8330 O         1 <0>         0.0000
  12013 WAT       -36.9320  -72.4160   -6.5830 O         1 <0>         0.0000
  12014 WAT       -36.9320  -72.4160   -6.3330 O         1 <0>         0.0000
  12015 WAT       -36.9320  -72.4160   -6.0830 O         1 <0>         0.0001
  12016 WAT       -36.9320  -72.4160   -5.8330 O         1 <0>         0.0001
  12017 WAT       -36.9320  -72.4160   -5.5830 O         1 <0>         0.0001
  12018 WAT       -36.9320  -72.4160   -5.3330 O         1 <0>         0.0001
  12019 WAT       -36.9320  -72.4160   -5.0830 O         1 <0>         0.0000
  12020 WAT       -36.9320  -72.4160   -4.8330 O         1 <0>         0.0000
  12021 WAT       -36.9320  -72.4160   -4.5830 O         1 <0>         0.0000
  12022 WAT       -36.9320  -72.4160   -4.3330 O         1 <0>         0.0000
  12023 WAT       -36.9320  -72.4160   -4.0830 O         1 <0>         0.0000
  12024 WAT       -36.9320  -72.4160   -3.8330 O         1 <0>         0.0000
  12025 WAT       -36.9320  -72.4160   -3.5830 O         1 <0>         0.0000
  12026 WAT       -36.9320  -72.4160   -3.3330 O         1 <0>         0.0000
  12027 WAT       -36.9320  -72.4160   -3.0830 O         1 <0>         0.0000
  12028 WAT       -36.9320  -72.4160   -2.8330 O         1 <0>         0.0000
  12029 WAT       -36.9320  -72.4160   -2.5830 O         1 <0>         0.0000
  12030 WAT       -36.9320  -72.4160   -2.3330 O         1 <0>         0.0000
  12031 WAT       -36.9320  -72.4160   -2.0830 O         1 <0>         0.0000
  12032 WAT       -36.9320  -72.4160   -1.8330 O         1 <0>         0.0000
  12033 WAT       -36.9320  -72.4160   -1.5830 O         1 <0>         0.0000
  12034 WAT       -36.9320  -72.4160   -1.3330 O         1 <0>         0.0000
  12035 WAT       -36.9320  -72.4160   -1.0830 O         1 <0>         0.0000
  12036 WAT       -36.9320  -72.4160   -0.8330 O         1 <0>         0.0000
  12037 WAT       -36.9320  -72.4160   -0.5830 O         1 <0>         0.0000
  12038 WAT       -36.9320  -72.4160   -0.3330 O         1 <0>         0.0000
  12039 WAT       -36.9320  -72.4160   -0.0830 O         1 <0>         0.0000
  12040 WAT       -36.9320  -72.1660   -9.8330 O         1 <0>         0.0000
  12041 WAT       -36.9320  -72.1660   -9.5830 O         1 <0>         0.0000
  12042 WAT       -36.9320  -72.1660   -9.3330 O         1 <0>         0.0000
  12043 WAT       -36.9320  -72.1660   -9.0830 O         1 <0>         0.0000
  12044 WAT       -36.9320  -72.1660   -8.8330 O         1 <0>         0.0000
  12045 WAT       -36.9320  -72.1660   -8.5830 O         1 <0>         0.0000
  12046 WAT       -36.9320  -72.1660   -8.3330 O         1 <0>         0.0000
  12047 WAT       -36.9320  -72.1660   -8.0830 O         1 <0>         0.0000
  12048 WAT       -36.9320  -72.1660   -7.8330 O         1 <0>         0.0000
  12049 WAT       -36.9320  -72.1660   -7.5830 O         1 <0>         0.0000
  12050 WAT       -36.9320  -72.1660   -7.3330 O         1 <0>         0.0000
  12051 WAT       -36.9320  -72.1660   -7.0830 O         1 <0>         0.0000
  12052 WAT       -36.9320  -72.1660   -6.8330 O         1 <0>         0.0000
  12053 WAT       -36.9320  -72.1660   -6.5830 O         1 <0>         0.0000
  12054 WAT       -36.9320  -72.1660   -6.3330 O         1 <0>         0.0000
  12055 WAT       -36.9320  -72.1660   -6.0830 O         1 <0>         0.0000
  12056 WAT       -36.9320  -72.1660   -5.8330 O         1 <0>         0.0000
  12057 WAT       -36.9320  -72.1660   -5.5830 O         1 <0>         0.0000
  12058 WAT       -36.9320  -72.1660   -5.3330 O         1 <0>         0.0000
  12059 WAT       -36.9320  -72.1660   -5.0830 O         1 <0>         0.0000
  12060 WAT       -36.9320  -72.1660   -4.8330 O         1 <0>         0.0000
  12061 WAT       -36.9320  -72.1660   -4.5830 O         1 <0>         0.0000
  12062 WAT       -36.9320  -72.1660   -4.3330 O         1 <0>         0.0000
  12063 WAT       -36.9320  -72.1660   -4.0830 O         1 <0>         0.0000
  12064 WAT       -36.9320  -72.1660   -3.8330 O         1 <0>         0.0000
  12065 WAT       -36.9320  -72.1660   -3.5830 O         1 <0>         0.0000
  12066 WAT       -36.9320  -72.1660   -3.3330 O         1 <0>         0.0000
  12067 WAT       -36.9320  -72.1660   -3.0830 O         1 <0>         0.0000
  12068 WAT       -36.9320  -72.1660   -2.8330 O         1 <0>         0.0000
  12069 WAT       -36.9320  -72.1660   -2.5830 O         1 <0>         0.0000
  12070 WAT       -36.9320  -72.1660   -2.3330 O         1 <0>         0.0000
  12071 WAT       -36.9320  -72.1660   -2.0830 O         1 <0>         0.0000
  12072 WAT       -36.9320  -72.1660   -1.8330 O         1 <0>         0.0000
  12073 WAT       -36.9320  -72.1660   -1.5830 O         1 <0>         0.0000
  12074 WAT       -36.9320  -72.1660   -1.3330 O         1 <0>         0.0000
  12075 WAT       -36.9320  -72.1660   -1.0830 O         1 <0>         0.0000
  12076 WAT       -36.9320  -72.1660   -0.8330 O         1 <0>         0.0000
  12077 WAT       -36.9320  -72.1660   -0.5830 O         1 <0>         0.0000
  12078 WAT       -36.9320  -72.1660   -0.3330 O         1 <0>         0.0000
  12079 WAT       -36.9320  -72.1660   -0.0830 O         1 <0>         0.0000
  12080 WAT       -36.9320  -71.9160   -9.8330 O         1 <0>         0.0000
  12081 WAT       -36.9320  -71.9160   -9.5830 O         1 <0>         0.0000
  12082 WAT       -36.9320  -71.9160   -9.3330 O         1 <0>         0.0000
  12083 WAT       -36.9320  -71.9160   -9.0830 O         1 <0>         0.0000
  12084 WAT       -36.9320  -71.9160   -8.8330 O         1 <0>         0.0000
  12085 WAT       -36.9320  -71.9160   -8.5830 O         1 <0>         0.0000
  12086 WAT       -36.9320  -71.9160   -8.3330 O         1 <0>         0.0000
  12087 WAT       -36.9320  -71.9160   -8.0830 O         1 <0>         0.0000
  12088 WAT       -36.9320  -71.9160   -7.8330 O         1 <0>         0.0000
  12089 WAT       -36.9320  -71.9160   -7.5830 O         1 <0>         0.0000
  12090 WAT       -36.9320  -71.9160   -7.3330 O         1 <0>         0.0000
  12091 WAT       -36.9320  -71.9160   -7.0830 O         1 <0>         0.0000
  12092 WAT       -36.9320  -71.9160   -6.8330 O         1 <0>         0.0000
  12093 WAT       -36.9320  -71.9160   -6.5830 O         1 <0>         0.0000
  12094 WAT       -36.9320  -71.9160   -6.3330 O         1 <0>         0.0000
  12095 WAT       -36.9320  -71.9160   -6.0830 O         1 <0>         0.0000
  12096 WAT       -36.9320  -71.9160   -5.8330 O         1 <0>         0.0000
  12097 WAT       -36.9320  -71.9160   -5.5830 O         1 <0>         0.0000
  12098 WAT       -36.9320  -71.9160   -5.3330 O         1 <0>         0.0000
  12099 WAT       -36.9320  -71.9160   -5.0830 O         1 <0>         0.0000
  12100 WAT       -36.9320  -71.9160   -4.8330 O         1 <0>         0.0000
  12101 WAT       -36.9320  -71.9160   -4.5830 O         1 <0>         0.0000
  12102 WAT       -36.9320  -71.9160   -4.3330 O         1 <0>         0.0000
  12103 WAT       -36.9320  -71.9160   -4.0830 O         1 <0>         0.0000
  12104 WAT       -36.9320  -71.9160   -3.8330 O         1 <0>         0.0000
  12105 WAT       -36.9320  -71.9160   -3.5830 O         1 <0>         0.0000
  12106 WAT       -36.9320  -71.9160   -3.3330 O         1 <0>         0.0000
  12107 WAT       -36.9320  -71.9160   -3.0830 O         1 <0>         0.0000
  12108 WAT       -36.9320  -71.9160   -2.8330 O         1 <0>         0.0000
  12109 WAT       -36.9320  -71.9160   -2.5830 O         1 <0>         0.0000
  12110 WAT       -36.9320  -71.9160   -2.3330 O         1 <0>         0.0000
  12111 WAT       -36.9320  -71.9160   -2.0830 O         1 <0>         0.0000
  12112 WAT       -36.9320  -71.9160   -1.8330 O         1 <0>         0.0000
  12113 WAT       -36.9320  -71.9160   -1.5830 O         1 <0>         0.0000
  12114 WAT       -36.9320  -71.9160   -1.3330 O         1 <0>         0.0000
  12115 WAT       -36.9320  -71.9160   -1.0830 O         1 <0>         0.0000
  12116 WAT       -36.9320  -71.9160   -0.8330 O         1 <0>         0.0000
  12117 WAT       -36.9320  -71.9160   -0.5830 O         1 <0>         0.0000
  12118 WAT       -36.9320  -71.9160   -0.3330 O         1 <0>         0.0000
  12119 WAT       -36.9320  -71.9160   -0.0830 O         1 <0>         0.0000
  12120 WAT       -36.9320  -71.6660   -9.8330 O         1 <0>         0.0000
  12121 WAT       -36.9320  -71.6660   -9.5830 O         1 <0>         0.0000
  12122 WAT       -36.9320  -71.6660   -9.3330 O         1 <0>         0.0000
  12123 WAT       -36.9320  -71.6660   -9.0830 O         1 <0>         0.0000
  12124 WAT       -36.9320  -71.6660   -8.8330 O         1 <0>         0.0000
  12125 WAT       -36.9320  -71.6660   -8.5830 O         1 <0>         0.0000
  12126 WAT       -36.9320  -71.6660   -8.3330 O         1 <0>         0.0000
  12127 WAT       -36.9320  -71.6660   -8.0830 O         1 <0>         0.0000
  12128 WAT       -36.9320  -71.6660   -7.8330 O         1 <0>         0.0000
  12129 WAT       -36.9320  -71.6660   -7.5830 O         1 <0>         0.0000
  12130 WAT       -36.9320  -71.6660   -7.3330 O         1 <0>         0.0000
  12131 WAT       -36.9320  -71.6660   -7.0830 O         1 <0>         0.0000
  12132 WAT       -36.9320  -71.6660   -6.8330 O         1 <0>         0.0000
  12133 WAT       -36.9320  -71.6660   -6.5830 O         1 <0>         0.0000
  12134 WAT       -36.9320  -71.6660   -6.3330 O         1 <0>         0.0000
  12135 WAT       -36.9320  -71.6660   -6.0830 O         1 <0>         0.0000
  12136 WAT       -36.9320  -71.6660   -5.8330 O         1 <0>         0.0000
  12137 WAT       -36.9320  -71.6660   -5.5830 O         1 <0>         0.0000
  12138 WAT       -36.9320  -71.6660   -5.3330 O         1 <0>         0.0000
  12139 WAT       -36.9320  -71.6660   -5.0830 O         1 <0>         0.0000
  12140 WAT       -36.9320  -71.6660   -4.8330 O         1 <0>         0.0000
  12141 WAT       -36.9320  -71.6660   -4.5830 O         1 <0>         0.0000
  12142 WAT       -36.9320  -71.6660   -4.3330 O         1 <0>         0.0000
  12143 WAT       -36.9320  -71.6660   -4.0830 O         1 <0>         0.0000
  12144 WAT       -36.9320  -71.6660   -3.8330 O         1 <0>         0.0000
  12145 WAT       -36.9320  -71.6660   -3.5830 O         1 <0>         0.0000
  12146 WAT       -36.9320  -71.6660   -3.3330 O         1 <0>         0.0000
  12147 WAT       -36.9320  -71.6660   -3.0830 O         1 <0>         0.0000
  12148 WAT       -36.9320  -71.6660   -2.8330 O         1 <0>         0.0000
  12149 WAT       -36.9320  -71.6660   -2.5830 O         1 <0>         0.0000
  12150 WAT       -36.9320  -71.6660   -2.3330 O         1 <0>         0.0000
  12151 WAT       -36.9320  -71.6660   -2.0830 O         1 <0>         0.0000
  12152 WAT       -36.9320  -71.6660   -1.8330 O         1 <0>         0.0000
  12153 WAT       -36.9320  -71.6660   -1.5830 O         1 <0>         0.0000
  12154 WAT       -36.9320  -71.6660   -1.3330 O         1 <0>         0.0000
  12155 WAT       -36.9320  -71.6660   -1.0830 O         1 <0>         0.0000
  12156 WAT       -36.9320  -71.6660   -0.8330 O         1 <0>         0.0000
  12157 WAT       -36.9320  -71.6660   -0.5830 O         1 <0>         0.0000
  12158 WAT       -36.9320  -71.6660   -0.3330 O         1 <0>         0.0000
  12159 WAT       -36.9320  -71.6660   -0.0830 O         1 <0>         0.0000
  12160 WAT       -36.9320  -71.4160   -9.8330 O         1 <0>         0.0000
  12161 WAT       -36.9320  -71.4160   -9.5830 O         1 <0>         0.0000
  12162 WAT       -36.9320  -71.4160   -9.3330 O         1 <0>         0.0000
  12163 WAT       -36.9320  -71.4160   -9.0830 O         1 <0>         0.0000
  12164 WAT       -36.9320  -71.4160   -8.8330 O         1 <0>         0.0000
  12165 WAT       -36.9320  -71.4160   -8.5830 O         1 <0>         0.0000
  12166 WAT       -36.9320  -71.4160   -8.3330 O         1 <0>         0.0000
  12167 WAT       -36.9320  -71.4160   -8.0830 O         1 <0>         0.0000
  12168 WAT       -36.9320  -71.4160   -7.8330 O         1 <0>         0.0000
  12169 WAT       -36.9320  -71.4160   -7.5830 O         1 <0>         0.0000
  12170 WAT       -36.9320  -71.4160   -7.3330 O         1 <0>         0.0000
  12171 WAT       -36.9320  -71.4160   -7.0830 O         1 <0>         0.0000
  12172 WAT       -36.9320  -71.4160   -6.8330 O         1 <0>         0.0000
  12173 WAT       -36.9320  -71.4160   -6.5830 O         1 <0>         0.0000
  12174 WAT       -36.9320  -71.4160   -6.3330 O         1 <0>         0.0000
  12175 WAT       -36.9320  -71.4160   -6.0830 O         1 <0>         0.0000
  12176 WAT       -36.9320  -71.4160   -5.8330 O         1 <0>         0.0000
  12177 WAT       -36.9320  -71.4160   -5.5830 O         1 <0>         0.0000
  12178 WAT       -36.9320  -71.4160   -5.3330 O         1 <0>         0.0000
  12179 WAT       -36.9320  -71.4160   -5.0830 O         1 <0>         0.0000
  12180 WAT       -36.9320  -71.4160   -4.8330 O         1 <0>         0.0000
  12181 WAT       -36.9320  -71.4160   -4.5830 O         1 <0>         0.0000
  12182 WAT       -36.9320  -71.4160   -4.3330 O         1 <0>         0.0000
  12183 WAT       -36.9320  -71.4160   -4.0830 O         1 <0>         0.0000
  12184 WAT       -36.9320  -71.4160   -3.8330 O         1 <0>         0.0000
  12185 WAT       -36.9320  -71.4160   -3.5830 O         1 <0>         0.0000
  12186 WAT       -36.9320  -71.4160   -3.3330 O         1 <0>         0.0000
  12187 WAT       -36.9320  -71.4160   -3.0830 O         1 <0>         0.0000
  12188 WAT       -36.9320  -71.4160   -2.8330 O         1 <0>         0.0000
  12189 WAT       -36.9320  -71.4160   -2.5830 O         1 <0>         0.0000
  12190 WAT       -36.9320  -71.4160   -2.3330 O         1 <0>         0.0000
  12191 WAT       -36.9320  -71.4160   -2.0830 O         1 <0>         0.0000
  12192 WAT       -36.9320  -71.4160   -1.8330 O         1 <0>         0.0000
  12193 WAT       -36.9320  -71.4160   -1.5830 O         1 <0>         0.0000
  12194 WAT       -36.9320  -71.4160   -1.3330 O         1 <0>         0.0000
  12195 WAT       -36.9320  -71.4160   -1.0830 O         1 <0>         0.0000
  12196 WAT       -36.9320  -71.4160   -0.8330 O         1 <0>         0.0000
  12197 WAT       -36.9320  -71.4160   -0.5830 O         1 <0>         0.0000
  12198 WAT       -36.9320  -71.4160   -0.3330 O         1 <0>         0.0000
  12199 WAT       -36.9320  -71.4160   -0.0830 O         1 <0>         0.0000
  12200 WAT       -36.9320  -71.1660   -9.8330 O         1 <0>         0.0000
  12201 WAT       -36.9320  -71.1660   -9.5830 O         1 <0>         0.0000
  12202 WAT       -36.9320  -71.1660   -9.3330 O         1 <0>         0.0000
  12203 WAT       -36.9320  -71.1660   -9.0830 O         1 <0>         0.0000
  12204 WAT       -36.9320  -71.1660   -8.8330 O         1 <0>         0.0000
  12205 WAT       -36.9320  -71.1660   -8.5830 O         1 <0>         0.0000
  12206 WAT       -36.9320  -71.1660   -8.3330 O         1 <0>         0.0000
  12207 WAT       -36.9320  -71.1660   -8.0830 O         1 <0>         0.0000
  12208 WAT       -36.9320  -71.1660   -7.8330 O         1 <0>         0.0000
  12209 WAT       -36.9320  -71.1660   -7.5830 O         1 <0>         0.0000
  12210 WAT       -36.9320  -71.1660   -7.3330 O         1 <0>         0.0000
  12211 WAT       -36.9320  -71.1660   -7.0830 O         1 <0>         0.0000
  12212 WAT       -36.9320  -71.1660   -6.8330 O         1 <0>         0.0000
  12213 WAT       -36.9320  -71.1660   -6.5830 O         1 <0>         0.0000
  12214 WAT       -36.9320  -71.1660   -6.3330 O         1 <0>         0.0000
  12215 WAT       -36.9320  -71.1660   -6.0830 O         1 <0>         0.0000
  12216 WAT       -36.9320  -71.1660   -5.8330 O         1 <0>         0.0000
  12217 WAT       -36.9320  -71.1660   -5.5830 O         1 <0>         0.0000
  12218 WAT       -36.9320  -71.1660   -5.3330 O         1 <0>         0.0000
  12219 WAT       -36.9320  -71.1660   -5.0830 O         1 <0>         0.0000
  12220 WAT       -36.9320  -71.1660   -4.8330 O         1 <0>         0.0000
  12221 WAT       -36.9320  -71.1660   -4.5830 O         1 <0>         0.0000
  12222 WAT       -36.9320  -71.1660   -4.3330 O         1 <0>         0.0000
  12223 WAT       -36.9320  -71.1660   -4.0830 O         1 <0>         0.0000
  12224 WAT       -36.9320  -71.1660   -3.8330 O         1 <0>         0.0000
  12225 WAT       -36.9320  -71.1660   -3.5830 O         1 <0>         0.0000
  12226 WAT       -36.9320  -71.1660   -3.3330 O         1 <0>         0.0000
  12227 WAT       -36.9320  -71.1660   -3.0830 O         1 <0>         0.0000
  12228 WAT       -36.9320  -71.1660   -2.8330 O         1 <0>         0.0000
  12229 WAT       -36.9320  -71.1660   -2.5830 O         1 <0>         0.0000
  12230 WAT       -36.9320  -71.1660   -2.3330 O         1 <0>         0.0000
  12231 WAT       -36.9320  -71.1660   -2.0830 O         1 <0>         0.0000
  12232 WAT       -36.9320  -71.1660   -1.8330 O         1 <0>         0.0000
  12233 WAT       -36.9320  -71.1660   -1.5830 O         1 <0>         0.0000
  12234 WAT       -36.9320  -71.1660   -1.3330 O         1 <0>         0.0000
  12235 WAT       -36.9320  -71.1660   -1.0830 O         1 <0>         0.0000
  12236 WAT       -36.9320  -71.1660   -0.8330 O         1 <0>         0.0000
  12237 WAT       -36.9320  -71.1660   -0.5830 O         1 <0>         0.0000
  12238 WAT       -36.9320  -71.1660   -0.3330 O         1 <0>         0.0000
  12239 WAT       -36.9320  -71.1660   -0.0830 O         1 <0>         0.0000
  12240 WAT       -36.9320  -70.9160   -9.8330 O         1 <0>         0.0000
  12241 WAT       -36.9320  -70.9160   -9.5830 O         1 <0>         0.0000
  12242 WAT       -36.9320  -70.9160   -9.3330 O         1 <0>         0.0000
  12243 WAT       -36.9320  -70.9160   -9.0830 O         1 <0>         0.0000
  12244 WAT       -36.9320  -70.9160   -8.8330 O         1 <0>         0.0000
  12245 WAT       -36.9320  -70.9160   -8.5830 O         1 <0>         0.0000
  12246 WAT       -36.9320  -70.9160   -8.3330 O         1 <0>         0.0000
  12247 WAT       -36.9320  -70.9160   -8.0830 O         1 <0>         0.0000
  12248 WAT       -36.9320  -70.9160   -7.8330 O         1 <0>         0.0000
  12249 WAT       -36.9320  -70.9160   -7.5830 O         1 <0>         0.0000
  12250 WAT       -36.9320  -70.9160   -7.3330 O         1 <0>         0.0000
  12251 WAT       -36.9320  -70.9160   -7.0830 O         1 <0>         0.0000
  12252 WAT       -36.9320  -70.9160   -6.8330 O         1 <0>         0.0000
  12253 WAT       -36.9320  -70.9160   -6.5830 O         1 <0>         0.0000
  12254 WAT       -36.9320  -70.9160   -6.3330 O         1 <0>         0.0000
  12255 WAT       -36.9320  -70.9160   -6.0830 O         1 <0>         0.0000
  12256 WAT       -36.9320  -70.9160   -5.8330 O         1 <0>         0.0000
  12257 WAT       -36.9320  -70.9160   -5.5830 O         1 <0>         0.0000
  12258 WAT       -36.9320  -70.9160   -5.3330 O         1 <0>         0.0000
  12259 WAT       -36.9320  -70.9160   -5.0830 O         1 <0>         0.0000
  12260 WAT       -36.9320  -70.9160   -4.8330 O         1 <0>         0.0000
  12261 WAT       -36.9320  -70.9160   -4.5830 O         1 <0>         0.0000
  12262 WAT       -36.9320  -70.9160   -4.3330 O         1 <0>         0.0000
  12263 WAT       -36.9320  -70.9160   -4.0830 O         1 <0>         0.0000
  12264 WAT       -36.9320  -70.9160   -3.8330 O         1 <0>         0.0000
  12265 WAT       -36.9320  -70.9160   -3.5830 O         1 <0>         0.0000
  12266 WAT       -36.9320  -70.9160   -3.3330 O         1 <0>         0.0000
  12267 WAT       -36.9320  -70.9160   -3.0830 O         1 <0>         0.0000
  12268 WAT       -36.9320  -70.9160   -2.8330 O         1 <0>         0.0000
  12269 WAT       -36.9320  -70.9160   -2.5830 O         1 <0>         0.0000
  12270 WAT       -36.9320  -70.9160   -2.3330 O         1 <0>         0.0000
  12271 WAT       -36.9320  -70.9160   -2.0830 O         1 <0>         0.0000
  12272 WAT       -36.9320  -70.9160   -1.8330 O         1 <0>         0.0000
  12273 WAT       -36.9320  -70.9160   -1.5830 O         1 <0>         0.0000
  12274 WAT       -36.9320  -70.9160   -1.3330 O         1 <0>         0.0000
  12275 WAT       -36.9320  -70.9160   -1.0830 O         1 <0>         0.0000
  12276 WAT       -36.9320  -70.9160   -0.8330 O         1 <0>         0.0000
  12277 WAT       -36.9320  -70.9160   -0.5830 O         1 <0>         0.0000
  12278 WAT       -36.9320  -70.9160   -0.3330 O         1 <0>         0.0000
  12279 WAT       -36.9320  -70.9160   -0.0830 O         1 <0>         0.0000
  12280 WAT       -36.9320  -70.6660   -9.8330 O         1 <0>         0.0000
  12281 WAT       -36.9320  -70.6660   -9.5830 O         1 <0>         0.0000
  12282 WAT       -36.9320  -70.6660   -9.3330 O         1 <0>         0.0000
  12283 WAT       -36.9320  -70.6660   -9.0830 O         1 <0>         0.0000
  12284 WAT       -36.9320  -70.6660   -8.8330 O         1 <0>         0.0000
  12285 WAT       -36.9320  -70.6660   -8.5830 O         1 <0>         0.0000
  12286 WAT       -36.9320  -70.6660   -8.3330 O         1 <0>         0.0000
  12287 WAT       -36.9320  -70.6660   -8.0830 O         1 <0>         0.0000
  12288 WAT       -36.9320  -70.6660   -7.8330 O         1 <0>         0.0000
  12289 WAT       -36.9320  -70.6660   -7.5830 O         1 <0>         0.0000
  12290 WAT       -36.9320  -70.6660   -7.3330 O         1 <0>         0.0000
  12291 WAT       -36.9320  -70.6660   -7.0830 O         1 <0>         0.0000
  12292 WAT       -36.9320  -70.6660   -6.8330 O         1 <0>         0.0000
  12293 WAT       -36.9320  -70.6660   -6.5830 O         1 <0>         0.0000
  12294 WAT       -36.9320  -70.6660   -6.3330 O         1 <0>         0.0000
  12295 WAT       -36.9320  -70.6660   -6.0830 O         1 <0>         0.0000
  12296 WAT       -36.9320  -70.6660   -5.8330 O         1 <0>         0.0000
  12297 WAT       -36.9320  -70.6660   -5.5830 O         1 <0>         0.0000
  12298 WAT       -36.9320  -70.6660   -5.3330 O         1 <0>         0.0000
  12299 WAT       -36.9320  -70.6660   -5.0830 O         1 <0>         0.0000
  12300 WAT       -36.9320  -70.6660   -4.8330 O         1 <0>         0.0000
  12301 WAT       -36.9320  -70.6660   -4.5830 O         1 <0>         0.0000
  12302 WAT       -36.9320  -70.6660   -4.3330 O         1 <0>         0.0000
  12303 WAT       -36.9320  -70.6660   -4.0830 O         1 <0>         0.0000
  12304 WAT       -36.9320  -70.6660   -3.8330 O         1 <0>         0.0000
  12305 WAT       -36.9320  -70.6660   -3.5830 O         1 <0>         0.0000
  12306 WAT       -36.9320  -70.6660   -3.3330 O         1 <0>         0.0000
  12307 WAT       -36.9320  -70.6660   -3.0830 O         1 <0>         0.0000
  12308 WAT       -36.9320  -70.6660   -2.8330 O         1 <0>         0.0000
  12309 WAT       -36.9320  -70.6660   -2.5830 O         1 <0>         0.0000
  12310 WAT       -36.9320  -70.6660   -2.3330 O         1 <0>         0.0000
  12311 WAT       -36.9320  -70.6660   -2.0830 O         1 <0>         0.0000
  12312 WAT       -36.9320  -70.6660   -1.8330 O         1 <0>         0.0000
  12313 WAT       -36.9320  -70.6660   -1.5830 O         1 <0>         0.0000
  12314 WAT       -36.9320  -70.6660   -1.3330 O         1 <0>         0.0000
  12315 WAT       -36.9320  -70.6660   -1.0830 O         1 <0>         0.0000
  12316 WAT       -36.9320  -70.6660   -0.8330 O         1 <0>         0.0000
  12317 WAT       -36.9320  -70.6660   -0.5830 O         1 <0>         0.0000
  12318 WAT       -36.9320  -70.6660   -0.3330 O         1 <0>         0.0000
  12319 WAT       -36.9320  -70.6660   -0.0830 O         1 <0>         0.0000
  12320 WAT       -36.9320  -70.4160   -9.8330 O         1 <0>         0.0000
  12321 WAT       -36.9320  -70.4160   -9.5830 O         1 <0>         0.0000
  12322 WAT       -36.9320  -70.4160   -9.3330 O         1 <0>         0.0000
  12323 WAT       -36.9320  -70.4160   -9.0830 O         1 <0>         0.0000
  12324 WAT       -36.9320  -70.4160   -8.8330 O         1 <0>         0.0000
  12325 WAT       -36.9320  -70.4160   -8.5830 O         1 <0>         0.0000
  12326 WAT       -36.9320  -70.4160   -8.3330 O         1 <0>         0.0000
  12327 WAT       -36.9320  -70.4160   -8.0830 O         1 <0>         0.0000
  12328 WAT       -36.9320  -70.4160   -7.8330 O         1 <0>         0.0000
  12329 WAT       -36.9320  -70.4160   -7.5830 O         1 <0>         0.0000
  12330 WAT       -36.9320  -70.4160   -7.3330 O         1 <0>         0.0000
  12331 WAT       -36.9320  -70.4160   -7.0830 O         1 <0>         0.0000
  12332 WAT       -36.9320  -70.4160   -6.8330 O         1 <0>         0.0000
  12333 WAT       -36.9320  -70.4160   -6.5830 O         1 <0>         0.0000
  12334 WAT       -36.9320  -70.4160   -6.3330 O         1 <0>         0.0000
  12335 WAT       -36.9320  -70.4160   -6.0830 O         1 <0>         0.0000
  12336 WAT       -36.9320  -70.4160   -5.8330 O         1 <0>         0.0000
  12337 WAT       -36.9320  -70.4160   -5.5830 O         1 <0>         0.0000
  12338 WAT       -36.9320  -70.4160   -5.3330 O         1 <0>         0.0000
  12339 WAT       -36.9320  -70.4160   -5.0830 O         1 <0>         0.0000
  12340 WAT       -36.9320  -70.4160   -4.8330 O         1 <0>         0.0000
  12341 WAT       -36.9320  -70.4160   -4.5830 O         1 <0>         0.0000
  12342 WAT       -36.9320  -70.4160   -4.3330 O         1 <0>         0.0000
  12343 WAT       -36.9320  -70.4160   -4.0830 O         1 <0>         0.0000
  12344 WAT       -36.9320  -70.4160   -3.8330 O         1 <0>         0.0000
  12345 WAT       -36.9320  -70.4160   -3.5830 O         1 <0>         0.0000
  12346 WAT       -36.9320  -70.4160   -3.3330 O         1 <0>         0.0000
  12347 WAT       -36.9320  -70.4160   -3.0830 O         1 <0>         0.0000
  12348 WAT       -36.9320  -70.4160   -2.8330 O         1 <0>         0.0000
  12349 WAT       -36.9320  -70.4160   -2.5830 O         1 <0>         0.0000
  12350 WAT       -36.9320  -70.4160   -2.3330 O         1 <0>         0.0000
  12351 WAT       -36.9320  -70.4160   -2.0830 O         1 <0>         0.0000
  12352 WAT       -36.9320  -70.4160   -1.8330 O         1 <0>         0.0000
  12353 WAT       -36.9320  -70.4160   -1.5830 O         1 <0>         0.0000
  12354 WAT       -36.9320  -70.4160   -1.3330 O         1 <0>         0.0000
  12355 WAT       -36.9320  -70.4160   -1.0830 O         1 <0>         0.0000
  12356 WAT       -36.9320  -70.4160   -0.8330 O         1 <0>         0.0000
  12357 WAT       -36.9320  -70.4160   -0.5830 O         1 <0>         0.0000
  12358 WAT       -36.9320  -70.4160   -0.3330 O         1 <0>         0.0000
  12359 WAT       -36.9320  -70.4160   -0.0830 O         1 <0>         0.0000
  12360 WAT       -36.9320  -70.1660   -9.8330 O         1 <0>         0.0000
  12361 WAT       -36.9320  -70.1660   -9.5830 O         1 <0>         0.0000
  12362 WAT       -36.9320  -70.1660   -9.3330 O         1 <0>         0.0000
  12363 WAT       -36.9320  -70.1660   -9.0830 O         1 <0>         0.0000
  12364 WAT       -36.9320  -70.1660   -8.8330 O         1 <0>         0.0000
  12365 WAT       -36.9320  -70.1660   -8.5830 O         1 <0>         0.0000
  12366 WAT       -36.9320  -70.1660   -8.3330 O         1 <0>         0.0000
  12367 WAT       -36.9320  -70.1660   -8.0830 O         1 <0>         0.0000
  12368 WAT       -36.9320  -70.1660   -7.8330 O         1 <0>         0.0000
  12369 WAT       -36.9320  -70.1660   -7.5830 O         1 <0>         0.0000
  12370 WAT       -36.9320  -70.1660   -7.3330 O         1 <0>         0.0000
  12371 WAT       -36.9320  -70.1660   -7.0830 O         1 <0>         0.0000
  12372 WAT       -36.9320  -70.1660   -6.8330 O         1 <0>         0.0000
  12373 WAT       -36.9320  -70.1660   -6.5830 O         1 <0>         0.0000
  12374 WAT       -36.9320  -70.1660   -6.3330 O         1 <0>         0.0000
  12375 WAT       -36.9320  -70.1660   -6.0830 O         1 <0>         0.0000
  12376 WAT       -36.9320  -70.1660   -5.8330 O         1 <0>         0.0000
  12377 WAT       -36.9320  -70.1660   -5.5830 O         1 <0>         0.0000
  12378 WAT       -36.9320  -70.1660   -5.3330 O         1 <0>         0.0000
  12379 WAT       -36.9320  -70.1660   -5.0830 O         1 <0>         0.0000
  12380 WAT       -36.9320  -70.1660   -4.8330 O         1 <0>         0.0000
  12381 WAT       -36.9320  -70.1660   -4.5830 O         1 <0>         0.0000
  12382 WAT       -36.9320  -70.1660   -4.3330 O         1 <0>         0.0000
  12383 WAT       -36.9320  -70.1660   -4.0830 O         1 <0>         0.0000
  12384 WAT       -36.9320  -70.1660   -3.8330 O         1 <0>         0.0000
  12385 WAT       -36.9320  -70.1660   -3.5830 O         1 <0>         0.0000
  12386 WAT       -36.9320  -70.1660   -3.3330 O         1 <0>         0.0000
  12387 WAT       -36.9320  -70.1660   -3.0830 O         1 <0>         0.0000
  12388 WAT       -36.9320  -70.1660   -2.8330 O         1 <0>         0.0000
  12389 WAT       -36.9320  -70.1660   -2.5830 O         1 <0>         0.0000
  12390 WAT       -36.9320  -70.1660   -2.3330 O         1 <0>         0.0000
  12391 WAT       -36.9320  -70.1660   -2.0830 O         1 <0>         0.0000
  12392 WAT       -36.9320  -70.1660   -1.8330 O         1 <0>         0.0000
  12393 WAT       -36.9320  -70.1660   -1.5830 O         1 <0>         0.0000
  12394 WAT       -36.9320  -70.1660   -1.3330 O         1 <0>         0.0000
  12395 WAT       -36.9320  -70.1660   -1.0830 O         1 <0>         0.0000
  12396 WAT       -36.9320  -70.1660   -0.8330 O         1 <0>         0.0000
  12397 WAT       -36.9320  -70.1660   -0.5830 O         1 <0>         0.0000
  12398 WAT       -36.9320  -70.1660   -0.3330 O         1 <0>         0.0000
  12399 WAT       -36.9320  -70.1660   -0.0830 O         1 <0>         0.0000
  12400 WAT       -36.9320  -69.9160   -9.8330 O         1 <0>         0.0000
  12401 WAT       -36.9320  -69.9160   -9.5830 O         1 <0>         0.0000
  12402 WAT       -36.9320  -69.9160   -9.3330 O         1 <0>         0.0000
  12403 WAT       -36.9320  -69.9160   -9.0830 O         1 <0>         0.0000
  12404 WAT       -36.9320  -69.9160   -8.8330 O         1 <0>         0.0000
  12405 WAT       -36.9320  -69.9160   -8.5830 O         1 <0>         0.0000
  12406 WAT       -36.9320  -69.9160   -8.3330 O         1 <0>         0.0000
  12407 WAT       -36.9320  -69.9160   -8.0830 O         1 <0>         0.0000
  12408 WAT       -36.9320  -69.9160   -7.8330 O         1 <0>         0.0000
  12409 WAT       -36.9320  -69.9160   -7.5830 O         1 <0>         0.0000
  12410 WAT       -36.9320  -69.9160   -7.3330 O         1 <0>         0.0000
  12411 WAT       -36.9320  -69.9160   -7.0830 O         1 <0>         0.0000
  12412 WAT       -36.9320  -69.9160   -6.8330 O         1 <0>         0.0000
  12413 WAT       -36.9320  -69.9160   -6.5830 O         1 <0>         0.0000
  12414 WAT       -36.9320  -69.9160   -6.3330 O         1 <0>         0.0000
  12415 WAT       -36.9320  -69.9160   -6.0830 O         1 <0>         0.0000
  12416 WAT       -36.9320  -69.9160   -5.8330 O         1 <0>         0.0000
  12417 WAT       -36.9320  -69.9160   -5.5830 O         1 <0>         0.0000
  12418 WAT       -36.9320  -69.9160   -5.3330 O         1 <0>         0.0000
  12419 WAT       -36.9320  -69.9160   -5.0830 O         1 <0>         0.0000
  12420 WAT       -36.9320  -69.9160   -4.8330 O         1 <0>         0.0000
  12421 WAT       -36.9320  -69.9160   -4.5830 O         1 <0>         0.0000
  12422 WAT       -36.9320  -69.9160   -4.3330 O         1 <0>         0.0000
  12423 WAT       -36.9320  -69.9160   -4.0830 O         1 <0>         0.0000
  12424 WAT       -36.9320  -69.9160   -3.8330 O         1 <0>         0.0000
  12425 WAT       -36.9320  -69.9160   -3.5830 O         1 <0>         0.0000
  12426 WAT       -36.9320  -69.9160   -3.3330 O         1 <0>         0.0000
  12427 WAT       -36.9320  -69.9160   -3.0830 O         1 <0>         0.0000
  12428 WAT       -36.9320  -69.9160   -2.8330 O         1 <0>         0.0000
  12429 WAT       -36.9320  -69.9160   -2.5830 O         1 <0>         0.0000
  12430 WAT       -36.9320  -69.9160   -2.3330 O         1 <0>         0.0000
  12431 WAT       -36.9320  -69.9160   -2.0830 O         1 <0>         0.0000
  12432 WAT       -36.9320  -69.9160   -1.8330 O         1 <0>         0.0000
  12433 WAT       -36.9320  -69.9160   -1.5830 O         1 <0>         0.0000
  12434 WAT       -36.9320  -69.9160   -1.3330 O         1 <0>         0.0000
  12435 WAT       -36.9320  -69.9160   -1.0830 O         1 <0>         0.0000
  12436 WAT       -36.9320  -69.9160   -0.8330 O         1 <0>         0.0000
  12437 WAT       -36.9320  -69.9160   -0.5830 O         1 <0>         0.0000
  12438 WAT       -36.9320  -69.9160   -0.3330 O         1 <0>         0.0000
  12439 WAT       -36.9320  -69.9160   -0.0830 O         1 <0>         0.0000
  12440 WAT       -36.9320  -69.6660   -9.8330 O         1 <0>         0.0000
  12441 WAT       -36.9320  -69.6660   -9.5830 O         1 <0>         0.0000
  12442 WAT       -36.9320  -69.6660   -9.3330 O         1 <0>         0.0000
  12443 WAT       -36.9320  -69.6660   -9.0830 O         1 <0>         0.0000
  12444 WAT       -36.9320  -69.6660   -8.8330 O         1 <0>         0.0000
  12445 WAT       -36.9320  -69.6660   -8.5830 O         1 <0>         0.0000
  12446 WAT       -36.9320  -69.6660   -8.3330 O         1 <0>         0.0000
  12447 WAT       -36.9320  -69.6660   -8.0830 O         1 <0>         0.0000
  12448 WAT       -36.9320  -69.6660   -7.8330 O         1 <0>         0.0000
  12449 WAT       -36.9320  -69.6660   -7.5830 O         1 <0>         0.0000
  12450 WAT       -36.9320  -69.6660   -7.3330 O         1 <0>         0.0000
  12451 WAT       -36.9320  -69.6660   -7.0830 O         1 <0>         0.0000
  12452 WAT       -36.9320  -69.6660   -6.8330 O         1 <0>         0.0000
  12453 WAT       -36.9320  -69.6660   -6.5830 O         1 <0>         0.0000
  12454 WAT       -36.9320  -69.6660   -6.3330 O         1 <0>         0.0000
  12455 WAT       -36.9320  -69.6660   -6.0830 O         1 <0>         0.0000
  12456 WAT       -36.9320  -69.6660   -5.8330 O         1 <0>         0.0000
  12457 WAT       -36.9320  -69.6660   -5.5830 O         1 <0>         0.0000
  12458 WAT       -36.9320  -69.6660   -5.3330 O         1 <0>         0.0000
  12459 WAT       -36.9320  -69.6660   -5.0830 O         1 <0>         0.0000
  12460 WAT       -36.9320  -69.6660   -4.8330 O         1 <0>         0.0000
  12461 WAT       -36.9320  -69.6660   -4.5830 O         1 <0>         0.0000
  12462 WAT       -36.9320  -69.6660   -4.3330 O         1 <0>         0.0000
  12463 WAT       -36.9320  -69.6660   -4.0830 O         1 <0>         0.0000
  12464 WAT       -36.9320  -69.6660   -3.8330 O         1 <0>         0.0000
  12465 WAT       -36.9320  -69.6660   -3.5830 O         1 <0>         0.0000
  12466 WAT       -36.9320  -69.6660   -3.3330 O         1 <0>         0.0000
  12467 WAT       -36.9320  -69.6660   -3.0830 O         1 <0>         0.0000
  12468 WAT       -36.9320  -69.6660   -2.8330 O         1 <0>         0.0000
  12469 WAT       -36.9320  -69.6660   -2.5830 O         1 <0>         0.0000
  12470 WAT       -36.9320  -69.6660   -2.3330 O         1 <0>         0.0000
  12471 WAT       -36.9320  -69.6660   -2.0830 O         1 <0>         0.0000
  12472 WAT       -36.9320  -69.6660   -1.8330 O         1 <0>         0.0000
  12473 WAT       -36.9320  -69.6660   -1.5830 O         1 <0>         0.0000
  12474 WAT       -36.9320  -69.6660   -1.3330 O         1 <0>         0.0000
  12475 WAT       -36.9320  -69.6660   -1.0830 O         1 <0>         0.0000
  12476 WAT       -36.9320  -69.6660   -0.8330 O         1 <0>         0.0000
  12477 WAT       -36.9320  -69.6660   -0.5830 O         1 <0>         0.0000
  12478 WAT       -36.9320  -69.6660   -0.3330 O         1 <0>         0.0000
  12479 WAT       -36.9320  -69.6660   -0.0830 O         1 <0>         0.0000
  12480 WAT       -36.9320  -69.4160   -9.8330 O         1 <0>         0.0000
  12481 WAT       -36.9320  -69.4160   -9.5830 O         1 <0>         0.0000
  12482 WAT       -36.9320  -69.4160   -9.3330 O         1 <0>         0.0000
  12483 WAT       -36.9320  -69.4160   -9.0830 O         1 <0>         0.0000
  12484 WAT       -36.9320  -69.4160   -8.8330 O         1 <0>         0.0000
  12485 WAT       -36.9320  -69.4160   -8.5830 O         1 <0>         0.0000
  12486 WAT       -36.9320  -69.4160   -8.3330 O         1 <0>         0.0000
  12487 WAT       -36.9320  -69.4160   -8.0830 O         1 <0>         0.0000
  12488 WAT       -36.9320  -69.4160   -7.8330 O         1 <0>         0.0000
  12489 WAT       -36.9320  -69.4160   -7.5830 O         1 <0>         0.0000
  12490 WAT       -36.9320  -69.4160   -7.3330 O         1 <0>         0.0000
  12491 WAT       -36.9320  -69.4160   -7.0830 O         1 <0>         0.0000
  12492 WAT       -36.9320  -69.4160   -6.8330 O         1 <0>         0.0000
  12493 WAT       -36.9320  -69.4160   -6.5830 O         1 <0>         0.0000
  12494 WAT       -36.9320  -69.4160   -6.3330 O         1 <0>         0.0000
  12495 WAT       -36.9320  -69.4160   -6.0830 O         1 <0>         0.0000
  12496 WAT       -36.9320  -69.4160   -5.8330 O         1 <0>         0.0000
  12497 WAT       -36.9320  -69.4160   -5.5830 O         1 <0>         0.0000
  12498 WAT       -36.9320  -69.4160   -5.3330 O         1 <0>         0.0000
  12499 WAT       -36.9320  -69.4160   -5.0830 O         1 <0>         0.0000
  12500 WAT       -36.9320  -69.4160   -4.8330 O         1 <0>         0.0000
  12501 WAT       -36.9320  -69.4160   -4.5830 O         1 <0>         0.0000
  12502 WAT       -36.9320  -69.4160   -4.3330 O         1 <0>         0.0000
  12503 WAT       -36.9320  -69.4160   -4.0830 O         1 <0>         0.0000
  12504 WAT       -36.9320  -69.4160   -3.8330 O         1 <0>         0.0000
  12505 WAT       -36.9320  -69.4160   -3.5830 O         1 <0>         0.0000
  12506 WAT       -36.9320  -69.4160   -3.3330 O         1 <0>         0.0000
  12507 WAT       -36.9320  -69.4160   -3.0830 O         1 <0>         0.0000
  12508 WAT       -36.9320  -69.4160   -2.8330 O         1 <0>         0.0000
  12509 WAT       -36.9320  -69.4160   -2.5830 O         1 <0>         0.0000
  12510 WAT       -36.9320  -69.4160   -2.3330 O         1 <0>         0.0000
  12511 WAT       -36.9320  -69.4160   -2.0830 O         1 <0>         0.0000
  12512 WAT       -36.9320  -69.4160   -1.8330 O         1 <0>         0.0000
  12513 WAT       -36.9320  -69.4160   -1.5830 O         1 <0>         0.0000
  12514 WAT       -36.9320  -69.4160   -1.3330 O         1 <0>         0.0000
  12515 WAT       -36.9320  -69.4160   -1.0830 O         1 <0>         0.0000
  12516 WAT       -36.9320  -69.4160   -0.8330 O         1 <0>         0.0000
  12517 WAT       -36.9320  -69.4160   -0.5830 O         1 <0>         0.0000
  12518 WAT       -36.9320  -69.4160   -0.3330 O         1 <0>         0.0000
  12519 WAT       -36.9320  -69.4160   -0.0830 O         1 <0>         0.0000
  12520 WAT       -36.9320  -69.1660   -9.8330 O         1 <0>         0.0000
  12521 WAT       -36.9320  -69.1660   -9.5830 O         1 <0>         0.0000
  12522 WAT       -36.9320  -69.1660   -9.3330 O         1 <0>         0.0000
  12523 WAT       -36.9320  -69.1660   -9.0830 O         1 <0>         0.0000
  12524 WAT       -36.9320  -69.1660   -8.8330 O         1 <0>         0.0000
  12525 WAT       -36.9320  -69.1660   -8.5830 O         1 <0>         0.0000
  12526 WAT       -36.9320  -69.1660   -8.3330 O         1 <0>         0.0000
  12527 WAT       -36.9320  -69.1660   -8.0830 O         1 <0>         0.0000
  12528 WAT       -36.9320  -69.1660   -7.8330 O         1 <0>         0.0000
  12529 WAT       -36.9320  -69.1660   -7.5830 O         1 <0>         0.0000
  12530 WAT       -36.9320  -69.1660   -7.3330 O         1 <0>         0.0000
  12531 WAT       -36.9320  -69.1660   -7.0830 O         1 <0>         0.0000
  12532 WAT       -36.9320  -69.1660   -6.8330 O         1 <0>         0.0000
  12533 WAT       -36.9320  -69.1660   -6.5830 O         1 <0>         0.0000
  12534 WAT       -36.9320  -69.1660   -6.3330 O         1 <0>         0.0000
  12535 WAT       -36.9320  -69.1660   -6.0830 O         1 <0>         0.0000
  12536 WAT       -36.9320  -69.1660   -5.8330 O         1 <0>         0.0000
  12537 WAT       -36.9320  -69.1660   -5.5830 O         1 <0>         0.0000
  12538 WAT       -36.9320  -69.1660   -5.3330 O         1 <0>         0.0000
  12539 WAT       -36.9320  -69.1660   -5.0830 O         1 <0>         0.0000
  12540 WAT       -36.9320  -69.1660   -4.8330 O         1 <0>         0.0000
  12541 WAT       -36.9320  -69.1660   -4.5830 O         1 <0>         0.0000
  12542 WAT       -36.9320  -69.1660   -4.3330 O         1 <0>         0.0000
  12543 WAT       -36.9320  -69.1660   -4.0830 O         1 <0>         0.0000
  12544 WAT       -36.9320  -69.1660   -3.8330 O         1 <0>         0.0000
  12545 WAT       -36.9320  -69.1660   -3.5830 O         1 <0>         0.0000
  12546 WAT       -36.9320  -69.1660   -3.3330 O         1 <0>         0.0000
  12547 WAT       -36.9320  -69.1660   -3.0830 O         1 <0>         0.0000
  12548 WAT       -36.9320  -69.1660   -2.8330 O         1 <0>         0.0000
  12549 WAT       -36.9320  -69.1660   -2.5830 O         1 <0>         0.0000
  12550 WAT       -36.9320  -69.1660   -2.3330 O         1 <0>         0.0000
  12551 WAT       -36.9320  -69.1660   -2.0830 O         1 <0>         0.0000
  12552 WAT       -36.9320  -69.1660   -1.8330 O         1 <0>         0.0000
  12553 WAT       -36.9320  -69.1660   -1.5830 O         1 <0>         0.0000
  12554 WAT       -36.9320  -69.1660   -1.3330 O         1 <0>         0.0000
  12555 WAT       -36.9320  -69.1660   -1.0830 O         1 <0>         0.0000
  12556 WAT       -36.9320  -69.1660   -0.8330 O         1 <0>         0.0000
  12557 WAT       -36.9320  -69.1660   -0.5830 O         1 <0>         0.0000
  12558 WAT       -36.9320  -69.1660   -0.3330 O         1 <0>         0.0000
  12559 WAT       -36.9320  -69.1660   -0.0830 O         1 <0>         0.0000
  12560 WAT       -36.9320  -68.9160   -9.8330 O         1 <0>         0.0000
  12561 WAT       -36.9320  -68.9160   -9.5830 O         1 <0>         0.0000
  12562 WAT       -36.9320  -68.9160   -9.3330 O         1 <0>         0.0000
  12563 WAT       -36.9320  -68.9160   -9.0830 O         1 <0>         0.0000
  12564 WAT       -36.9320  -68.9160   -8.8330 O         1 <0>         0.0000
  12565 WAT       -36.9320  -68.9160   -8.5830 O         1 <0>         0.0000
  12566 WAT       -36.9320  -68.9160   -8.3330 O         1 <0>         0.0000
  12567 WAT       -36.9320  -68.9160   -8.0830 O         1 <0>         0.0000
  12568 WAT       -36.9320  -68.9160   -7.8330 O         1 <0>         0.0000
  12569 WAT       -36.9320  -68.9160   -7.5830 O         1 <0>         0.0000
  12570 WAT       -36.9320  -68.9160   -7.3330 O         1 <0>         0.0000
  12571 WAT       -36.9320  -68.9160   -7.0830 O         1 <0>         0.0000
  12572 WAT       -36.9320  -68.9160   -6.8330 O         1 <0>         0.0000
  12573 WAT       -36.9320  -68.9160   -6.5830 O         1 <0>         0.0000
  12574 WAT       -36.9320  -68.9160   -6.3330 O         1 <0>         0.0000
  12575 WAT       -36.9320  -68.9160   -6.0830 O         1 <0>         0.0000
  12576 WAT       -36.9320  -68.9160   -5.8330 O         1 <0>         0.0000
  12577 WAT       -36.9320  -68.9160   -5.5830 O         1 <0>         0.0000
  12578 WAT       -36.9320  -68.9160   -5.3330 O         1 <0>         0.0000
  12579 WAT       -36.9320  -68.9160   -5.0830 O         1 <0>         0.0000
  12580 WAT       -36.9320  -68.9160   -4.8330 O         1 <0>         0.0000
  12581 WAT       -36.9320  -68.9160   -4.5830 O         1 <0>         0.0000
  12582 WAT       -36.9320  -68.9160   -4.3330 O         1 <0>         0.0000
  12583 WAT       -36.9320  -68.9160   -4.0830 O         1 <0>         0.0000
  12584 WAT       -36.9320  -68.9160   -3.8330 O         1 <0>         0.0000
  12585 WAT       -36.9320  -68.9160   -3.5830 O         1 <0>         0.0000
  12586 WAT       -36.9320  -68.9160   -3.3330 O         1 <0>         0.0000
  12587 WAT       -36.9320  -68.9160   -3.0830 O         1 <0>         0.0000
  12588 WAT       -36.9320  -68.9160   -2.8330 O         1 <0>         0.0000
  12589 WAT       -36.9320  -68.9160   -2.5830 O         1 <0>         0.0000
  12590 WAT       -36.9320  -68.9160   -2.3330 O         1 <0>         0.0000
  12591 WAT       -36.9320  -68.9160   -2.0830 O         1 <0>         0.0000
  12592 WAT       -36.9320  -68.9160   -1.8330 O         1 <0>         0.0000
  12593 WAT       -36.9320  -68.9160   -1.5830 O         1 <0>         0.0000
  12594 WAT       -36.9320  -68.9160   -1.3330 O         1 <0>         0.0000
  12595 WAT       -36.9320  -68.9160   -1.0830 O         1 <0>         0.0000
  12596 WAT       -36.9320  -68.9160   -0.8330 O         1 <0>         0.0000
  12597 WAT       -36.9320  -68.9160   -0.5830 O         1 <0>         0.0000
  12598 WAT       -36.9320  -68.9160   -0.3330 O         1 <0>         0.0000
  12599 WAT       -36.9320  -68.9160   -0.0830 O         1 <0>         0.0000
  12600 WAT       -36.6820  -77.4160   -9.8330 O         1 <0>         0.0000
  12601 WAT       -36.6820  -77.4160   -9.5830 O         1 <0>         0.0000
  12602 WAT       -36.6820  -77.4160   -9.3330 O         1 <0>         0.0000
  12603 WAT       -36.6820  -77.4160   -9.0830 O         1 <0>         0.0000
  12604 WAT       -36.6820  -77.4160   -8.8330 O         1 <0>         0.0000
  12605 WAT       -36.6820  -77.4160   -8.5830 O         1 <0>         0.0000
  12606 WAT       -36.6820  -77.4160   -8.3330 O         1 <0>         0.0000
  12607 WAT       -36.6820  -77.4160   -8.0830 O         1 <0>         0.0000
  12608 WAT       -36.6820  -77.4160   -7.8330 O         1 <0>         0.0000
  12609 WAT       -36.6820  -77.4160   -7.5830 O         1 <0>         0.0000
  12610 WAT       -36.6820  -77.4160   -7.3330 O         1 <0>         0.0000
  12611 WAT       -36.6820  -77.4160   -7.0830 O         1 <0>         0.0000
  12612 WAT       -36.6820  -77.4160   -6.8330 O         1 <0>         0.0000
  12613 WAT       -36.6820  -77.4160   -6.5830 O         1 <0>         0.0000
  12614 WAT       -36.6820  -77.4160   -6.3330 O         1 <0>         0.0000
  12615 WAT       -36.6820  -77.4160   -6.0830 O         1 <0>         0.0000
  12616 WAT       -36.6820  -77.4160   -5.8330 O         1 <0>         0.0000
  12617 WAT       -36.6820  -77.4160   -5.5830 O         1 <0>         0.0000
  12618 WAT       -36.6820  -77.4160   -5.3330 O         1 <0>         0.0000
  12619 WAT       -36.6820  -77.4160   -5.0830 O         1 <0>         0.0000
  12620 WAT       -36.6820  -77.4160   -4.8330 O         1 <0>         0.0000
  12621 WAT       -36.6820  -77.4160   -4.5830 O         1 <0>         0.0000
  12622 WAT       -36.6820  -77.4160   -4.3330 O         1 <0>         0.0000
  12623 WAT       -36.6820  -77.4160   -4.0830 O         1 <0>         0.0000
  12624 WAT       -36.6820  -77.4160   -3.8330 O         1 <0>         0.0000
  12625 WAT       -36.6820  -77.4160   -3.5830 O         1 <0>         0.0000
  12626 WAT       -36.6820  -77.4160   -3.3330 O         1 <0>         0.0000
  12627 WAT       -36.6820  -77.4160   -3.0830 O         1 <0>         0.0000
  12628 WAT       -36.6820  -77.4160   -2.8330 O         1 <0>         0.0000
  12629 WAT       -36.6820  -77.4160   -2.5830 O         1 <0>         0.0000
  12630 WAT       -36.6820  -77.4160   -2.3330 O         1 <0>         0.0000
  12631 WAT       -36.6820  -77.4160   -2.0830 O         1 <0>         0.0000
  12632 WAT       -36.6820  -77.4160   -1.8330 O         1 <0>         0.0000
  12633 WAT       -36.6820  -77.4160   -1.5830 O         1 <0>         0.0000
  12634 WAT       -36.6820  -77.4160   -1.3330 O         1 <0>         0.0000
  12635 WAT       -36.6820  -77.4160   -1.0830 O         1 <0>         0.0000
  12636 WAT       -36.6820  -77.4160   -0.8330 O         1 <0>         0.0000
  12637 WAT       -36.6820  -77.4160   -0.5830 O         1 <0>         0.0000
  12638 WAT       -36.6820  -77.4160   -0.3330 O         1 <0>         0.0000
  12639 WAT       -36.6820  -77.4160   -0.0830 O         1 <0>         0.0000
  12640 WAT       -36.6820  -77.1660   -9.8330 O         1 <0>         0.0000
  12641 WAT       -36.6820  -77.1660   -9.5830 O         1 <0>         0.0000
  12642 WAT       -36.6820  -77.1660   -9.3330 O         1 <0>         0.0000
  12643 WAT       -36.6820  -77.1660   -9.0830 O         1 <0>         0.0000
  12644 WAT       -36.6820  -77.1660   -8.8330 O         1 <0>         0.0000
  12645 WAT       -36.6820  -77.1660   -8.5830 O         1 <0>         0.0000
  12646 WAT       -36.6820  -77.1660   -8.3330 O         1 <0>         0.0000
  12647 WAT       -36.6820  -77.1660   -8.0830 O         1 <0>         0.0000
  12648 WAT       -36.6820  -77.1660   -7.8330 O         1 <0>         0.0000
  12649 WAT       -36.6820  -77.1660   -7.5830 O         1 <0>         0.0000
  12650 WAT       -36.6820  -77.1660   -7.3330 O         1 <0>         0.0000
  12651 WAT       -36.6820  -77.1660   -7.0830 O         1 <0>         0.0000
  12652 WAT       -36.6820  -77.1660   -6.8330 O         1 <0>         0.0000
  12653 WAT       -36.6820  -77.1660   -6.5830 O         1 <0>         0.0000
  12654 WAT       -36.6820  -77.1660   -6.3330 O         1 <0>         0.0000
  12655 WAT       -36.6820  -77.1660   -6.0830 O         1 <0>         0.0000
  12656 WAT       -36.6820  -77.1660   -5.8330 O         1 <0>         0.0000
  12657 WAT       -36.6820  -77.1660   -5.5830 O         1 <0>         0.0000
  12658 WAT       -36.6820  -77.1660   -5.3330 O         1 <0>         0.0000
  12659 WAT       -36.6820  -77.1660   -5.0830 O         1 <0>         0.0000
  12660 WAT       -36.6820  -77.1660   -4.8330 O         1 <0>         0.0000
  12661 WAT       -36.6820  -77.1660   -4.5830 O         1 <0>         0.0000
  12662 WAT       -36.6820  -77.1660   -4.3330 O         1 <0>         0.0000
  12663 WAT       -36.6820  -77.1660   -4.0830 O         1 <0>         0.0000
  12664 WAT       -36.6820  -77.1660   -3.8330 O         1 <0>         0.0000
  12665 WAT       -36.6820  -77.1660   -3.5830 O         1 <0>         0.0000
  12666 WAT       -36.6820  -77.1660   -3.3330 O         1 <0>         0.0000
  12667 WAT       -36.6820  -77.1660   -3.0830 O         1 <0>         0.0000
  12668 WAT       -36.6820  -77.1660   -2.8330 O         1 <0>         0.0000
  12669 WAT       -36.6820  -77.1660   -2.5830 O         1 <0>         0.0000
  12670 WAT       -36.6820  -77.1660   -2.3330 O         1 <0>         0.0000
  12671 WAT       -36.6820  -77.1660   -2.0830 O         1 <0>         0.0000
  12672 WAT       -36.6820  -77.1660   -1.8330 O         1 <0>         0.0000
  12673 WAT       -36.6820  -77.1660   -1.5830 O         1 <0>         0.0000
  12674 WAT       -36.6820  -77.1660   -1.3330 O         1 <0>         0.0000
  12675 WAT       -36.6820  -77.1660   -1.0830 O         1 <0>         0.0000
  12676 WAT       -36.6820  -77.1660   -0.8330 O         1 <0>         0.0000
  12677 WAT       -36.6820  -77.1660   -0.5830 O         1 <0>         0.0000
  12678 WAT       -36.6820  -77.1660   -0.3330 O         1 <0>         0.0000
  12679 WAT       -36.6820  -77.1660   -0.0830 O         1 <0>         0.0000
  12680 WAT       -36.6820  -76.9160   -9.8330 O         1 <0>         0.0000
  12681 WAT       -36.6820  -76.9160   -9.5830 O         1 <0>         0.0000
  12682 WAT       -36.6820  -76.9160   -9.3330 O         1 <0>         0.0000
  12683 WAT       -36.6820  -76.9160   -9.0830 O         1 <0>         0.0000
  12684 WAT       -36.6820  -76.9160   -8.8330 O         1 <0>         0.0000
  12685 WAT       -36.6820  -76.9160   -8.5830 O         1 <0>         0.0000
  12686 WAT       -36.6820  -76.9160   -8.3330 O         1 <0>         0.0000
  12687 WAT       -36.6820  -76.9160   -8.0830 O         1 <0>         0.0000
  12688 WAT       -36.6820  -76.9160   -7.8330 O         1 <0>         0.0000
  12689 WAT       -36.6820  -76.9160   -7.5830 O         1 <0>         0.0000
  12690 WAT       -36.6820  -76.9160   -7.3330 O         1 <0>         0.0000
  12691 WAT       -36.6820  -76.9160   -7.0830 O         1 <0>         0.0000
  12692 WAT       -36.6820  -76.9160   -6.8330 O         1 <0>         0.0000
  12693 WAT       -36.6820  -76.9160   -6.5830 O         1 <0>         0.0000
  12694 WAT       -36.6820  -76.9160   -6.3330 O         1 <0>         0.0000
  12695 WAT       -36.6820  -76.9160   -6.0830 O         1 <0>         0.0000
  12696 WAT       -36.6820  -76.9160   -5.8330 O         1 <0>         0.0000
  12697 WAT       -36.6820  -76.9160   -5.5830 O         1 <0>         0.0000
  12698 WAT       -36.6820  -76.9160   -5.3330 O         1 <0>         0.0000
  12699 WAT       -36.6820  -76.9160   -5.0830 O         1 <0>         0.0000
  12700 WAT       -36.6820  -76.9160   -4.8330 O         1 <0>         0.0000
  12701 WAT       -36.6820  -76.9160   -4.5830 O         1 <0>         0.0000
  12702 WAT       -36.6820  -76.9160   -4.3330 O         1 <0>         0.0000
  12703 WAT       -36.6820  -76.9160   -4.0830 O         1 <0>         0.0000
  12704 WAT       -36.6820  -76.9160   -3.8330 O         1 <0>         0.0000
  12705 WAT       -36.6820  -76.9160   -3.5830 O         1 <0>         0.0000
  12706 WAT       -36.6820  -76.9160   -3.3330 O         1 <0>         0.0000
  12707 WAT       -36.6820  -76.9160   -3.0830 O         1 <0>         0.0000
  12708 WAT       -36.6820  -76.9160   -2.8330 O         1 <0>         0.0000
  12709 WAT       -36.6820  -76.9160   -2.5830 O         1 <0>         0.0000
  12710 WAT       -36.6820  -76.9160   -2.3330 O         1 <0>         0.0000
  12711 WAT       -36.6820  -76.9160   -2.0830 O         1 <0>         0.0000
  12712 WAT       -36.6820  -76.9160   -1.8330 O         1 <0>         0.0000
  12713 WAT       -36.6820  -76.9160   -1.5830 O         1 <0>         0.0000
  12714 WAT       -36.6820  -76.9160   -1.3330 O         1 <0>         0.0000
  12715 WAT       -36.6820  -76.9160   -1.0830 O         1 <0>         0.0000
  12716 WAT       -36.6820  -76.9160   -0.8330 O         1 <0>         0.0000
  12717 WAT       -36.6820  -76.9160   -0.5830 O         1 <0>         0.0000
  12718 WAT       -36.6820  -76.9160   -0.3330 O         1 <0>         0.0000
  12719 WAT       -36.6820  -76.9160   -0.0830 O         1 <0>         0.0000
  12720 WAT       -36.6820  -76.6660   -9.8330 O         1 <0>         0.0000
  12721 WAT       -36.6820  -76.6660   -9.5830 O         1 <0>         0.0000
  12722 WAT       -36.6820  -76.6660   -9.3330 O         1 <0>         0.0000
  12723 WAT       -36.6820  -76.6660   -9.0830 O         1 <0>         0.0000
  12724 WAT       -36.6820  -76.6660   -8.8330 O         1 <0>         0.0000
  12725 WAT       -36.6820  -76.6660   -8.5830 O         1 <0>         0.0000
  12726 WAT       -36.6820  -76.6660   -8.3330 O         1 <0>         0.0000
  12727 WAT       -36.6820  -76.6660   -8.0830 O         1 <0>         0.0000
  12728 WAT       -36.6820  -76.6660   -7.8330 O         1 <0>         0.0000
  12729 WAT       -36.6820  -76.6660   -7.5830 O         1 <0>         0.0000
  12730 WAT       -36.6820  -76.6660   -7.3330 O         1 <0>         0.0000
  12731 WAT       -36.6820  -76.6660   -7.0830 O         1 <0>         0.0000
  12732 WAT       -36.6820  -76.6660   -6.8330 O         1 <0>         0.0000
  12733 WAT       -36.6820  -76.6660   -6.5830 O         1 <0>         0.0000
  12734 WAT       -36.6820  -76.6660   -6.3330 O         1 <0>         0.0000
  12735 WAT       -36.6820  -76.6660   -6.0830 O         1 <0>         0.0000
  12736 WAT       -36.6820  -76.6660   -5.8330 O         1 <0>         0.0000
  12737 WAT       -36.6820  -76.6660   -5.5830 O         1 <0>         0.0000
  12738 WAT       -36.6820  -76.6660   -5.3330 O         1 <0>         0.0000
  12739 WAT       -36.6820  -76.6660   -5.0830 O         1 <0>         0.0000
  12740 WAT       -36.6820  -76.6660   -4.8330 O         1 <0>         0.0000
  12741 WAT       -36.6820  -76.6660   -4.5830 O         1 <0>         0.0000
  12742 WAT       -36.6820  -76.6660   -4.3330 O         1 <0>         0.0000
  12743 WAT       -36.6820  -76.6660   -4.0830 O         1 <0>         0.0000
  12744 WAT       -36.6820  -76.6660   -3.8330 O         1 <0>         0.0000
  12745 WAT       -36.6820  -76.6660   -3.5830 O         1 <0>         0.0000
  12746 WAT       -36.6820  -76.6660   -3.3330 O         1 <0>         0.0000
  12747 WAT       -36.6820  -76.6660   -3.0830 O         1 <0>         0.0000
  12748 WAT       -36.6820  -76.6660   -2.8330 O         1 <0>         0.0000
  12749 WAT       -36.6820  -76.6660   -2.5830 O         1 <0>         0.0000
  12750 WAT       -36.6820  -76.6660   -2.3330 O         1 <0>         0.0000
  12751 WAT       -36.6820  -76.6660   -2.0830 O         1 <0>         0.0000
  12752 WAT       -36.6820  -76.6660   -1.8330 O         1 <0>         0.0000
  12753 WAT       -36.6820  -76.6660   -1.5830 O         1 <0>         0.0000
  12754 WAT       -36.6820  -76.6660   -1.3330 O         1 <0>         0.0000
  12755 WAT       -36.6820  -76.6660   -1.0830 O         1 <0>         0.0000
  12756 WAT       -36.6820  -76.6660   -0.8330 O         1 <0>         0.0000
  12757 WAT       -36.6820  -76.6660   -0.5830 O         1 <0>         0.0000
  12758 WAT       -36.6820  -76.6660   -0.3330 O         1 <0>         0.0000
  12759 WAT       -36.6820  -76.6660   -0.0830 O         1 <0>         0.0000
  12760 WAT       -36.6820  -76.4160   -9.8330 O         1 <0>         0.0000
  12761 WAT       -36.6820  -76.4160   -9.5830 O         1 <0>         0.0000
  12762 WAT       -36.6820  -76.4160   -9.3330 O         1 <0>         0.0000
  12763 WAT       -36.6820  -76.4160   -9.0830 O         1 <0>         0.0000
  12764 WAT       -36.6820  -76.4160   -8.8330 O         1 <0>         0.0000
  12765 WAT       -36.6820  -76.4160   -8.5830 O         1 <0>         0.0000
  12766 WAT       -36.6820  -76.4160   -8.3330 O         1 <0>         0.0000
  12767 WAT       -36.6820  -76.4160   -8.0830 O         1 <0>         0.0000
  12768 WAT       -36.6820  -76.4160   -7.8330 O         1 <0>         0.0000
  12769 WAT       -36.6820  -76.4160   -7.5830 O         1 <0>         0.0000
  12770 WAT       -36.6820  -76.4160   -7.3330 O         1 <0>         0.0000
  12771 WAT       -36.6820  -76.4160   -7.0830 O         1 <0>         0.0000
  12772 WAT       -36.6820  -76.4160   -6.8330 O         1 <0>         0.0000
  12773 WAT       -36.6820  -76.4160   -6.5830 O         1 <0>         0.0000
  12774 WAT       -36.6820  -76.4160   -6.3330 O         1 <0>         0.0000
  12775 WAT       -36.6820  -76.4160   -6.0830 O         1 <0>         0.0000
  12776 WAT       -36.6820  -76.4160   -5.8330 O         1 <0>         0.0000
  12777 WAT       -36.6820  -76.4160   -5.5830 O         1 <0>         0.0000
  12778 WAT       -36.6820  -76.4160   -5.3330 O         1 <0>         0.0000
  12779 WAT       -36.6820  -76.4160   -5.0830 O         1 <0>         0.0000
  12780 WAT       -36.6820  -76.4160   -4.8330 O         1 <0>         0.0000
  12781 WAT       -36.6820  -76.4160   -4.5830 O         1 <0>         0.0000
  12782 WAT       -36.6820  -76.4160   -4.3330 O         1 <0>         0.0000
  12783 WAT       -36.6820  -76.4160   -4.0830 O         1 <0>         0.0000
  12784 WAT       -36.6820  -76.4160   -3.8330 O         1 <0>         0.0000
  12785 WAT       -36.6820  -76.4160   -3.5830 O         1 <0>         0.0000
  12786 WAT       -36.6820  -76.4160   -3.3330 O         1 <0>         0.0000
  12787 WAT       -36.6820  -76.4160   -3.0830 O         1 <0>         0.0000
  12788 WAT       -36.6820  -76.4160   -2.8330 O         1 <0>         0.0000
  12789 WAT       -36.6820  -76.4160   -2.5830 O         1 <0>         0.0000
  12790 WAT       -36.6820  -76.4160   -2.3330 O         1 <0>         0.0000
  12791 WAT       -36.6820  -76.4160   -2.0830 O         1 <0>         0.0000
  12792 WAT       -36.6820  -76.4160   -1.8330 O         1 <0>         0.0000
  12793 WAT       -36.6820  -76.4160   -1.5830 O         1 <0>         0.0000
  12794 WAT       -36.6820  -76.4160   -1.3330 O         1 <0>         0.0000
  12795 WAT       -36.6820  -76.4160   -1.0830 O         1 <0>         0.0000
  12796 WAT       -36.6820  -76.4160   -0.8330 O         1 <0>         0.0000
  12797 WAT       -36.6820  -76.4160   -0.5830 O         1 <0>         0.0000
  12798 WAT       -36.6820  -76.4160   -0.3330 O         1 <0>         0.0000
  12799 WAT       -36.6820  -76.4160   -0.0830 O         1 <0>         0.0000
  12800 WAT       -36.6820  -76.1660   -9.8330 O         1 <0>         0.0000
  12801 WAT       -36.6820  -76.1660   -9.5830 O         1 <0>         0.0000
  12802 WAT       -36.6820  -76.1660   -9.3330 O         1 <0>         0.0000
  12803 WAT       -36.6820  -76.1660   -9.0830 O         1 <0>         0.0000
  12804 WAT       -36.6820  -76.1660   -8.8330 O         1 <0>         0.0000
  12805 WAT       -36.6820  -76.1660   -8.5830 O         1 <0>         0.0000
  12806 WAT       -36.6820  -76.1660   -8.3330 O         1 <0>         0.0000
  12807 WAT       -36.6820  -76.1660   -8.0830 O         1 <0>         0.0000
  12808 WAT       -36.6820  -76.1660   -7.8330 O         1 <0>         0.0000
  12809 WAT       -36.6820  -76.1660   -7.5830 O         1 <0>         0.0000
  12810 WAT       -36.6820  -76.1660   -7.3330 O         1 <0>         0.0000
  12811 WAT       -36.6820  -76.1660   -7.0830 O         1 <0>         0.0000
  12812 WAT       -36.6820  -76.1660   -6.8330 O         1 <0>         0.0000
  12813 WAT       -36.6820  -76.1660   -6.5830 O         1 <0>         0.0000
  12814 WAT       -36.6820  -76.1660   -6.3330 O         1 <0>         0.0000
  12815 WAT       -36.6820  -76.1660   -6.0830 O         1 <0>         0.0000
  12816 WAT       -36.6820  -76.1660   -5.8330 O         1 <0>         0.0000
  12817 WAT       -36.6820  -76.1660   -5.5830 O         1 <0>         0.0000
  12818 WAT       -36.6820  -76.1660   -5.3330 O         1 <0>         0.0000
  12819 WAT       -36.6820  -76.1660   -5.0830 O         1 <0>         0.0000
  12820 WAT       -36.6820  -76.1660   -4.8330 O         1 <0>         0.0000
  12821 WAT       -36.6820  -76.1660   -4.5830 O         1 <0>         0.0000
  12822 WAT       -36.6820  -76.1660   -4.3330 O         1 <0>         0.0000
  12823 WAT       -36.6820  -76.1660   -4.0830 O         1 <0>         0.0000
  12824 WAT       -36.6820  -76.1660   -3.8330 O         1 <0>         0.0000
  12825 WAT       -36.6820  -76.1660   -3.5830 O         1 <0>         0.0000
  12826 WAT       -36.6820  -76.1660   -3.3330 O         1 <0>         0.0000
  12827 WAT       -36.6820  -76.1660   -3.0830 O         1 <0>         0.0000
  12828 WAT       -36.6820  -76.1660   -2.8330 O         1 <0>         0.0000
  12829 WAT       -36.6820  -76.1660   -2.5830 O         1 <0>         0.0000
  12830 WAT       -36.6820  -76.1660   -2.3330 O         1 <0>         0.0000
  12831 WAT       -36.6820  -76.1660   -2.0830 O         1 <0>         0.0000
  12832 WAT       -36.6820  -76.1660   -1.8330 O         1 <0>         0.0000
  12833 WAT       -36.6820  -76.1660   -1.5830 O         1 <0>         0.0000
  12834 WAT       -36.6820  -76.1660   -1.3330 O         1 <0>         0.0000
  12835 WAT       -36.6820  -76.1660   -1.0830 O         1 <0>         0.0000
  12836 WAT       -36.6820  -76.1660   -0.8330 O         1 <0>         0.0000
  12837 WAT       -36.6820  -76.1660   -0.5830 O         1 <0>         0.0000
  12838 WAT       -36.6820  -76.1660   -0.3330 O         1 <0>         0.0000
  12839 WAT       -36.6820  -76.1660   -0.0830 O         1 <0>         0.0000
  12840 WAT       -36.6820  -75.9160   -9.8330 O         1 <0>         0.0000
  12841 WAT       -36.6820  -75.9160   -9.5830 O         1 <0>         0.0000
  12842 WAT       -36.6820  -75.9160   -9.3330 O         1 <0>         0.0000
  12843 WAT       -36.6820  -75.9160   -9.0830 O         1 <0>         0.0000
  12844 WAT       -36.6820  -75.9160   -8.8330 O         1 <0>         0.0000
  12845 WAT       -36.6820  -75.9160   -8.5830 O         1 <0>         0.0000
  12846 WAT       -36.6820  -75.9160   -8.3330 O         1 <0>         0.0000
  12847 WAT       -36.6820  -75.9160   -8.0830 O         1 <0>         0.0000
  12848 WAT       -36.6820  -75.9160   -7.8330 O         1 <0>         0.0000
  12849 WAT       -36.6820  -75.9160   -7.5830 O         1 <0>         0.0000
  12850 WAT       -36.6820  -75.9160   -7.3330 O         1 <0>         0.0000
  12851 WAT       -36.6820  -75.9160   -7.0830 O         1 <0>         0.0000
  12852 WAT       -36.6820  -75.9160   -6.8330 O         1 <0>         0.0000
  12853 WAT       -36.6820  -75.9160   -6.5830 O         1 <0>         0.0000
  12854 WAT       -36.6820  -75.9160   -6.3330 O         1 <0>         0.0000
  12855 WAT       -36.6820  -75.9160   -6.0830 O         1 <0>         0.0000
  12856 WAT       -36.6820  -75.9160   -5.8330 O         1 <0>         0.0000
  12857 WAT       -36.6820  -75.9160   -5.5830 O         1 <0>         0.0000
  12858 WAT       -36.6820  -75.9160   -5.3330 O         1 <0>         0.0000
  12859 WAT       -36.6820  -75.9160   -5.0830 O         1 <0>         0.0000
  12860 WAT       -36.6820  -75.9160   -4.8330 O         1 <0>         0.0000
  12861 WAT       -36.6820  -75.9160   -4.5830 O         1 <0>         0.0000
  12862 WAT       -36.6820  -75.9160   -4.3330 O         1 <0>         0.0000
  12863 WAT       -36.6820  -75.9160   -4.0830 O         1 <0>         0.0000
  12864 WAT       -36.6820  -75.9160   -3.8330 O         1 <0>         0.0000
  12865 WAT       -36.6820  -75.9160   -3.5830 O         1 <0>         0.0000
  12866 WAT       -36.6820  -75.9160   -3.3330 O         1 <0>         0.0000
  12867 WAT       -36.6820  -75.9160   -3.0830 O         1 <0>         0.0000
  12868 WAT       -36.6820  -75.9160   -2.8330 O         1 <0>         0.0000
  12869 WAT       -36.6820  -75.9160   -2.5830 O         1 <0>         0.0000
  12870 WAT       -36.6820  -75.9160   -2.3330 O         1 <0>         0.0000
  12871 WAT       -36.6820  -75.9160   -2.0830 O         1 <0>         0.0000
  12872 WAT       -36.6820  -75.9160   -1.8330 O         1 <0>         0.0000
  12873 WAT       -36.6820  -75.9160   -1.5830 O         1 <0>         0.0000
  12874 WAT       -36.6820  -75.9160   -1.3330 O         1 <0>         0.0000
  12875 WAT       -36.6820  -75.9160   -1.0830 O         1 <0>         0.0000
  12876 WAT       -36.6820  -75.9160   -0.8330 O         1 <0>         0.0000
  12877 WAT       -36.6820  -75.9160   -0.5830 O         1 <0>         0.0000
  12878 WAT       -36.6820  -75.9160   -0.3330 O         1 <0>         0.0000
  12879 WAT       -36.6820  -75.9160   -0.0830 O         1 <0>         0.0000
  12880 WAT       -36.6820  -75.6660   -9.8330 O         1 <0>         0.0000
  12881 WAT       -36.6820  -75.6660   -9.5830 O         1 <0>         0.0000
  12882 WAT       -36.6820  -75.6660   -9.3330 O         1 <0>         0.0000
  12883 WAT       -36.6820  -75.6660   -9.0830 O         1 <0>         0.0000
  12884 WAT       -36.6820  -75.6660   -8.8330 O         1 <0>         0.0000
  12885 WAT       -36.6820  -75.6660   -8.5830 O         1 <0>         0.0000
  12886 WAT       -36.6820  -75.6660   -8.3330 O         1 <0>         0.0000
  12887 WAT       -36.6820  -75.6660   -8.0830 O         1 <0>         0.0000
  12888 WAT       -36.6820  -75.6660   -7.8330 O         1 <0>         0.0000
  12889 WAT       -36.6820  -75.6660   -7.5830 O         1 <0>         0.0000
  12890 WAT       -36.6820  -75.6660   -7.3330 O         1 <0>         0.0000
  12891 WAT       -36.6820  -75.6660   -7.0830 O         1 <0>         0.0000
  12892 WAT       -36.6820  -75.6660   -6.8330 O         1 <0>         0.0000
  12893 WAT       -36.6820  -75.6660   -6.5830 O         1 <0>         0.0000
  12894 WAT       -36.6820  -75.6660   -6.3330 O         1 <0>         0.0000
  12895 WAT       -36.6820  -75.6660   -6.0830 O         1 <0>         0.0000
  12896 WAT       -36.6820  -75.6660   -5.8330 O         1 <0>         0.0000
  12897 WAT       -36.6820  -75.6660   -5.5830 O         1 <0>         0.0000
  12898 WAT       -36.6820  -75.6660   -5.3330 O         1 <0>         0.0000
  12899 WAT       -36.6820  -75.6660   -5.0830 O         1 <0>         0.0001
  12900 WAT       -36.6820  -75.6660   -4.8330 O         1 <0>         0.0001
  12901 WAT       -36.6820  -75.6660   -4.5830 O         1 <0>         0.0001
  12902 WAT       -36.6820  -75.6660   -4.3330 O         1 <0>         0.0001
  12903 WAT       -36.6820  -75.6660   -4.0830 O         1 <0>         0.0000
  12904 WAT       -36.6820  -75.6660   -3.8330 O         1 <0>         0.0000
  12905 WAT       -36.6820  -75.6660   -3.5830 O         1 <0>         0.0000
  12906 WAT       -36.6820  -75.6660   -3.3330 O         1 <0>         0.0000
  12907 WAT       -36.6820  -75.6660   -3.0830 O         1 <0>         0.0000
  12908 WAT       -36.6820  -75.6660   -2.8330 O         1 <0>         0.0000
  12909 WAT       -36.6820  -75.6660   -2.5830 O         1 <0>         0.0000
  12910 WAT       -36.6820  -75.6660   -2.3330 O         1 <0>         0.0000
  12911 WAT       -36.6820  -75.6660   -2.0830 O         1 <0>         0.0000
  12912 WAT       -36.6820  -75.6660   -1.8330 O         1 <0>         0.0000
  12913 WAT       -36.6820  -75.6660   -1.5830 O         1 <0>         0.0000
  12914 WAT       -36.6820  -75.6660   -1.3330 O         1 <0>         0.0000
  12915 WAT       -36.6820  -75.6660   -1.0830 O         1 <0>         0.0000
  12916 WAT       -36.6820  -75.6660   -0.8330 O         1 <0>         0.0000
  12917 WAT       -36.6820  -75.6660   -0.5830 O         1 <0>         0.0000
  12918 WAT       -36.6820  -75.6660   -0.3330 O         1 <0>         0.0000
  12919 WAT       -36.6820  -75.6660   -0.0830 O         1 <0>         0.0000
  12920 WAT       -36.6820  -75.4160   -9.8330 O         1 <0>         0.0000
  12921 WAT       -36.6820  -75.4160   -9.5830 O         1 <0>         0.0000
  12922 WAT       -36.6820  -75.4160   -9.3330 O         1 <0>         0.0000
  12923 WAT       -36.6820  -75.4160   -9.0830 O         1 <0>         0.0000
  12924 WAT       -36.6820  -75.4160   -8.8330 O         1 <0>         0.0000
  12925 WAT       -36.6820  -75.4160   -8.5830 O         1 <0>         0.0000
  12926 WAT       -36.6820  -75.4160   -8.3330 O         1 <0>         0.0000
  12927 WAT       -36.6820  -75.4160   -8.0830 O         1 <0>         0.0000
  12928 WAT       -36.6820  -75.4160   -7.8330 O         1 <0>         0.0000
  12929 WAT       -36.6820  -75.4160   -7.5830 O         1 <0>         0.0000
  12930 WAT       -36.6820  -75.4160   -7.3330 O         1 <0>         0.0000
  12931 WAT       -36.6820  -75.4160   -7.0830 O         1 <0>         0.0000
  12932 WAT       -36.6820  -75.4160   -6.8330 O         1 <0>         0.0000
  12933 WAT       -36.6820  -75.4160   -6.5830 O         1 <0>         0.0000
  12934 WAT       -36.6820  -75.4160   -6.3330 O         1 <0>         0.0000
  12935 WAT       -36.6820  -75.4160   -6.0830 O         1 <0>         0.0000
  12936 WAT       -36.6820  -75.4160   -5.8330 O         1 <0>         0.0001
  12937 WAT       -36.6820  -75.4160   -5.5830 O         1 <0>         0.0002
  12938 WAT       -36.6820  -75.4160   -5.3330 O         1 <0>         0.0004
  12939 WAT       -36.6820  -75.4160   -5.0830 O         1 <0>         0.0006
  12940 WAT       -36.6820  -75.4160   -4.8330 O         1 <0>         0.0008
  12941 WAT       -36.6820  -75.4160   -4.5830 O         1 <0>         0.0009
  12942 WAT       -36.6820  -75.4160   -4.3330 O         1 <0>         0.0006
  12943 WAT       -36.6820  -75.4160   -4.0830 O         1 <0>         0.0003
  12944 WAT       -36.6820  -75.4160   -3.8330 O         1 <0>         0.0002
  12945 WAT       -36.6820  -75.4160   -3.5830 O         1 <0>         0.0001
  12946 WAT       -36.6820  -75.4160   -3.3330 O         1 <0>         0.0000
  12947 WAT       -36.6820  -75.4160   -3.0830 O         1 <0>         0.0000
  12948 WAT       -36.6820  -75.4160   -2.8330 O         1 <0>         0.0000
  12949 WAT       -36.6820  -75.4160   -2.5830 O         1 <0>         0.0000
  12950 WAT       -36.6820  -75.4160   -2.3330 O         1 <0>         0.0000
  12951 WAT       -36.6820  -75.4160   -2.0830 O         1 <0>         0.0000
  12952 WAT       -36.6820  -75.4160   -1.8330 O         1 <0>         0.0000
  12953 WAT       -36.6820  -75.4160   -1.5830 O         1 <0>         0.0000
  12954 WAT       -36.6820  -75.4160   -1.3330 O         1 <0>         0.0000
  12955 WAT       -36.6820  -75.4160   -1.0830 O         1 <0>         0.0000
  12956 WAT       -36.6820  -75.4160   -0.8330 O         1 <0>         0.0000
  12957 WAT       -36.6820  -75.4160   -0.5830 O         1 <0>         0.0000
  12958 WAT       -36.6820  -75.4160   -0.3330 O         1 <0>         0.0000
  12959 WAT       -36.6820  -75.4160   -0.0830 O         1 <0>         0.0000
  12960 WAT       -36.6820  -75.1660   -9.8330 O         1 <0>         0.0000
  12961 WAT       -36.6820  -75.1660   -9.5830 O         1 <0>         0.0000
  12962 WAT       -36.6820  -75.1660   -9.3330 O         1 <0>         0.0000
  12963 WAT       -36.6820  -75.1660   -9.0830 O         1 <0>         0.0000
  12964 WAT       -36.6820  -75.1660   -8.8330 O         1 <0>         0.0000
  12965 WAT       -36.6820  -75.1660   -8.5830 O         1 <0>         0.0000
  12966 WAT       -36.6820  -75.1660   -8.3330 O         1 <0>         0.0000
  12967 WAT       -36.6820  -75.1660   -8.0830 O         1 <0>         0.0000
  12968 WAT       -36.6820  -75.1660   -7.8330 O         1 <0>         0.0000
  12969 WAT       -36.6820  -75.1660   -7.5830 O         1 <0>         0.0000
  12970 WAT       -36.6820  -75.1660   -7.3330 O         1 <0>         0.0000
  12971 WAT       -36.6820  -75.1660   -7.0830 O         1 <0>         0.0000
  12972 WAT       -36.6820  -75.1660   -6.8330 O         1 <0>         0.0000
  12973 WAT       -36.6820  -75.1660   -6.5830 O         1 <0>         0.0000
  12974 WAT       -36.6820  -75.1660   -6.3330 O         1 <0>         0.0000
  12975 WAT       -36.6820  -75.1660   -6.0830 O         1 <0>         0.0001
  12976 WAT       -36.6820  -75.1660   -5.8330 O         1 <0>         0.0004
  12977 WAT       -36.6820  -75.1660   -5.5830 O         1 <0>         0.0009
  12978 WAT       -36.6820  -75.1660   -5.3330 O         1 <0>         0.0015
  12979 WAT       -36.6820  -75.1660   -5.0830 O         1 <0>         0.0024
  12980 WAT       -36.6820  -75.1660   -4.8330 O         1 <0>         0.0030
  12981 WAT       -36.6820  -75.1660   -4.5830 O         1 <0>         0.0030
  12982 WAT       -36.6820  -75.1660   -4.3330 O         1 <0>         0.0024
  12983 WAT       -36.6820  -75.1660   -4.0830 O         1 <0>         0.0015
  12984 WAT       -36.6820  -75.1660   -3.8330 O         1 <0>         0.0008
  12985 WAT       -36.6820  -75.1660   -3.5830 O         1 <0>         0.0004
  12986 WAT       -36.6820  -75.1660   -3.3330 O         1 <0>         0.0002
  12987 WAT       -36.6820  -75.1660   -3.0830 O         1 <0>         0.0001
  12988 WAT       -36.6820  -75.1660   -2.8330 O         1 <0>         0.0000
  12989 WAT       -36.6820  -75.1660   -2.5830 O         1 <0>         0.0000
  12990 WAT       -36.6820  -75.1660   -2.3330 O         1 <0>         0.0000
  12991 WAT       -36.6820  -75.1660   -2.0830 O         1 <0>         0.0000
  12992 WAT       -36.6820  -75.1660   -1.8330 O         1 <0>         0.0000
  12993 WAT       -36.6820  -75.1660   -1.5830 O         1 <0>         0.0000
  12994 WAT       -36.6820  -75.1660   -1.3330 O         1 <0>         0.0000
  12995 WAT       -36.6820  -75.1660   -1.0830 O         1 <0>         0.0000
  12996 WAT       -36.6820  -75.1660   -0.8330 O         1 <0>         0.0000
  12997 WAT       -36.6820  -75.1660   -0.5830 O         1 <0>         0.0000
  12998 WAT       -36.6820  -75.1660   -0.3330 O         1 <0>         0.0000
  12999 WAT       -36.6820  -75.1660   -0.0830 O         1 <0>         0.0000
  13000 WAT       -36.6820  -74.9160   -9.8330 O         1 <0>         0.0000
  13001 WAT       -36.6820  -74.9160   -9.5830 O         1 <0>         0.0000
  13002 WAT       -36.6820  -74.9160   -9.3330 O         1 <0>         0.0000
  13003 WAT       -36.6820  -74.9160   -9.0830 O         1 <0>         0.0000
  13004 WAT       -36.6820  -74.9160   -8.8330 O         1 <0>         0.0000
  13005 WAT       -36.6820  -74.9160   -8.5830 O         1 <0>         0.0000
  13006 WAT       -36.6820  -74.9160   -8.3330 O         1 <0>         0.0000
  13007 WAT       -36.6820  -74.9160   -8.0830 O         1 <0>         0.0000
  13008 WAT       -36.6820  -74.9160   -7.8330 O         1 <0>         0.0000
  13009 WAT       -36.6820  -74.9160   -7.5830 O         1 <0>         0.0000
  13010 WAT       -36.6820  -74.9160   -7.3330 O         1 <0>         0.0000
  13011 WAT       -36.6820  -74.9160   -7.0830 O         1 <0>         0.0000
  13012 WAT       -36.6820  -74.9160   -6.8330 O         1 <0>         0.0000
  13013 WAT       -36.6820  -74.9160   -6.5830 O         1 <0>         0.0001
  13014 WAT       -36.6820  -74.9160   -6.3330 O         1 <0>         0.0003
  13015 WAT       -36.6820  -74.9160   -6.0830 O         1 <0>         0.0009
  13016 WAT       -36.6820  -74.9160   -5.8330 O         1 <0>         0.0018
  13017 WAT       -36.6820  -74.9160   -5.5830 O         1 <0>         0.0030
  13018 WAT       -36.6820  -74.9160   -5.3330 O         1 <0>         0.0045
  13019 WAT       -36.6820  -74.9160   -5.0830 O         1 <0>         0.0063
  13020 WAT       -36.6820  -74.9160   -4.8330 O         1 <0>         0.0076
  13021 WAT       -36.6820  -74.9160   -4.5830 O         1 <0>         0.0076
  13022 WAT       -36.6820  -74.9160   -4.3330 O         1 <0>         0.0061
  13023 WAT       -36.6820  -74.9160   -4.0830 O         1 <0>         0.0041
  13024 WAT       -36.6820  -74.9160   -3.8330 O         1 <0>         0.0024
  13025 WAT       -36.6820  -74.9160   -3.5830 O         1 <0>         0.0013
  13026 WAT       -36.6820  -74.9160   -3.3330 O         1 <0>         0.0006
  13027 WAT       -36.6820  -74.9160   -3.0830 O         1 <0>         0.0002
  13028 WAT       -36.6820  -74.9160   -2.8330 O         1 <0>         0.0000
  13029 WAT       -36.6820  -74.9160   -2.5830 O         1 <0>         0.0000
  13030 WAT       -36.6820  -74.9160   -2.3330 O         1 <0>         0.0000
  13031 WAT       -36.6820  -74.9160   -2.0830 O         1 <0>         0.0000
  13032 WAT       -36.6820  -74.9160   -1.8330 O         1 <0>         0.0000
  13033 WAT       -36.6820  -74.9160   -1.5830 O         1 <0>         0.0000
  13034 WAT       -36.6820  -74.9160   -1.3330 O         1 <0>         0.0000
  13035 WAT       -36.6820  -74.9160   -1.0830 O         1 <0>         0.0000
  13036 WAT       -36.6820  -74.9160   -0.8330 O         1 <0>         0.0000
  13037 WAT       -36.6820  -74.9160   -0.5830 O         1 <0>         0.0000
  13038 WAT       -36.6820  -74.9160   -0.3330 O         1 <0>         0.0000
  13039 WAT       -36.6820  -74.9160   -0.0830 O         1 <0>         0.0000
  13040 WAT       -36.6820  -74.6660   -9.8330 O         1 <0>         0.0000
  13041 WAT       -36.6820  -74.6660   -9.5830 O         1 <0>         0.0000
  13042 WAT       -36.6820  -74.6660   -9.3330 O         1 <0>         0.0000
  13043 WAT       -36.6820  -74.6660   -9.0830 O         1 <0>         0.0000
  13044 WAT       -36.6820  -74.6660   -8.8330 O         1 <0>         0.0000
  13045 WAT       -36.6820  -74.6660   -8.5830 O         1 <0>         0.0000
  13046 WAT       -36.6820  -74.6660   -8.3330 O         1 <0>         0.0000
  13047 WAT       -36.6820  -74.6660   -8.0830 O         1 <0>         0.0000
  13048 WAT       -36.6820  -74.6660   -7.8330 O         1 <0>         0.0000
  13049 WAT       -36.6820  -74.6660   -7.5830 O         1 <0>         0.0000
  13050 WAT       -36.6820  -74.6660   -7.3330 O         1 <0>         0.0000
  13051 WAT       -36.6820  -74.6660   -7.0830 O         1 <0>         0.0000
  13052 WAT       -36.6820  -74.6660   -6.8330 O         1 <0>         0.0001
  13053 WAT       -36.6820  -74.6660   -6.5830 O         1 <0>         0.0005
  13054 WAT       -36.6820  -74.6660   -6.3330 O         1 <0>         0.0019
  13055 WAT       -36.6820  -74.6660   -6.0830 O         1 <0>         0.0042
  13056 WAT       -36.6820  -74.6660   -5.8330 O         1 <0>         0.0067
  13057 WAT       -36.6820  -74.6660   -5.5830 O         1 <0>         0.0088
  13058 WAT       -36.6820  -74.6660   -5.3330 O         1 <0>         0.0108
  13059 WAT       -36.6820  -74.6660   -5.0830 O         1 <0>         0.0132
  13060 WAT       -36.6820  -74.6660   -4.8330 O         1 <0>         0.0146
  13061 WAT       -36.6820  -74.6660   -4.5830 O         1 <0>         0.0141
  13062 WAT       -36.6820  -74.6660   -4.3330 O         1 <0>         0.0114
  13063 WAT       -36.6820  -74.6660   -4.0830 O         1 <0>         0.0078
  13064 WAT       -36.6820  -74.6660   -3.8330 O         1 <0>         0.0047
  13065 WAT       -36.6820  -74.6660   -3.5830 O         1 <0>         0.0027
  13066 WAT       -36.6820  -74.6660   -3.3330 O         1 <0>         0.0014
  13067 WAT       -36.6820  -74.6660   -3.0830 O         1 <0>         0.0005
  13068 WAT       -36.6820  -74.6660   -2.8330 O         1 <0>         0.0001
  13069 WAT       -36.6820  -74.6660   -2.5830 O         1 <0>         0.0000
  13070 WAT       -36.6820  -74.6660   -2.3330 O         1 <0>         0.0000
  13071 WAT       -36.6820  -74.6660   -2.0830 O         1 <0>         0.0000
  13072 WAT       -36.6820  -74.6660   -1.8330 O         1 <0>         0.0000
  13073 WAT       -36.6820  -74.6660   -1.5830 O         1 <0>         0.0000
  13074 WAT       -36.6820  -74.6660   -1.3330 O         1 <0>         0.0000
  13075 WAT       -36.6820  -74.6660   -1.0830 O         1 <0>         0.0000
  13076 WAT       -36.6820  -74.6660   -0.8330 O         1 <0>         0.0000
  13077 WAT       -36.6820  -74.6660   -0.5830 O         1 <0>         0.0000
  13078 WAT       -36.6820  -74.6660   -0.3330 O         1 <0>         0.0000
  13079 WAT       -36.6820  -74.6660   -0.0830 O         1 <0>         0.0000
  13080 WAT       -36.6820  -74.4160   -9.8330 O         1 <0>         0.0000
  13081 WAT       -36.6820  -74.4160   -9.5830 O         1 <0>         0.0000
  13082 WAT       -36.6820  -74.4160   -9.3330 O         1 <0>         0.0000
  13083 WAT       -36.6820  -74.4160   -9.0830 O         1 <0>         0.0000
  13084 WAT       -36.6820  -74.4160   -8.8330 O         1 <0>         0.0000
  13085 WAT       -36.6820  -74.4160   -8.5830 O         1 <0>         0.0000
  13086 WAT       -36.6820  -74.4160   -8.3330 O         1 <0>         0.0000
  13087 WAT       -36.6820  -74.4160   -8.0830 O         1 <0>         0.0000
  13088 WAT       -36.6820  -74.4160   -7.8330 O         1 <0>         0.0000
  13089 WAT       -36.6820  -74.4160   -7.5830 O         1 <0>         0.0000
  13090 WAT       -36.6820  -74.4160   -7.3330 O         1 <0>         0.0000
  13091 WAT       -36.6820  -74.4160   -7.0830 O         1 <0>         0.0000
  13092 WAT       -36.6820  -74.4160   -6.8330 O         1 <0>         0.0004
  13093 WAT       -36.6820  -74.4160   -6.5830 O         1 <0>         0.0023
  13094 WAT       -36.6820  -74.4160   -6.3330 O         1 <0>         0.0071
  13095 WAT       -36.6820  -74.4160   -6.0830 O         1 <0>         0.0138
  13096 WAT       -36.6820  -74.4160   -5.8330 O         1 <0>         0.0193
  13097 WAT       -36.6820  -74.4160   -5.5830 O         1 <0>         0.0214
  13098 WAT       -36.6820  -74.4160   -5.3330 O         1 <0>         0.0217
  13099 WAT       -36.6820  -74.4160   -5.0830 O         1 <0>         0.0222
  13100 WAT       -36.6820  -74.4160   -4.8330 O         1 <0>         0.0222
  13101 WAT       -36.6820  -74.4160   -4.5830 O         1 <0>         0.0201
  13102 WAT       -36.6820  -74.4160   -4.3330 O         1 <0>         0.0158
  13103 WAT       -36.6820  -74.4160   -4.0830 O         1 <0>         0.0109
  13104 WAT       -36.6820  -74.4160   -3.8330 O         1 <0>         0.0069
  13105 WAT       -36.6820  -74.4160   -3.5830 O         1 <0>         0.0041
  13106 WAT       -36.6820  -74.4160   -3.3330 O         1 <0>         0.0022
  13107 WAT       -36.6820  -74.4160   -3.0830 O         1 <0>         0.0009
  13108 WAT       -36.6820  -74.4160   -2.8330 O         1 <0>         0.0002
  13109 WAT       -36.6820  -74.4160   -2.5830 O         1 <0>         0.0000
  13110 WAT       -36.6820  -74.4160   -2.3330 O         1 <0>         0.0000
  13111 WAT       -36.6820  -74.4160   -2.0830 O         1 <0>         0.0000
  13112 WAT       -36.6820  -74.4160   -1.8330 O         1 <0>         0.0000
  13113 WAT       -36.6820  -74.4160   -1.5830 O         1 <0>         0.0000
  13114 WAT       -36.6820  -74.4160   -1.3330 O         1 <0>         0.0000
  13115 WAT       -36.6820  -74.4160   -1.0830 O         1 <0>         0.0000
  13116 WAT       -36.6820  -74.4160   -0.8330 O         1 <0>         0.0000
  13117 WAT       -36.6820  -74.4160   -0.5830 O         1 <0>         0.0000
  13118 WAT       -36.6820  -74.4160   -0.3330 O         1 <0>         0.0000
  13119 WAT       -36.6820  -74.4160   -0.0830 O         1 <0>         0.0000
  13120 WAT       -36.6820  -74.1660   -9.8330 O         1 <0>         0.0000
  13121 WAT       -36.6820  -74.1660   -9.5830 O         1 <0>         0.0000
  13122 WAT       -36.6820  -74.1660   -9.3330 O         1 <0>         0.0000
  13123 WAT       -36.6820  -74.1660   -9.0830 O         1 <0>         0.0000
  13124 WAT       -36.6820  -74.1660   -8.8330 O         1 <0>         0.0000
  13125 WAT       -36.6820  -74.1660   -8.5830 O         1 <0>         0.0000
  13126 WAT       -36.6820  -74.1660   -8.3330 O         1 <0>         0.0000
  13127 WAT       -36.6820  -74.1660   -8.0830 O         1 <0>         0.0000
  13128 WAT       -36.6820  -74.1660   -7.8330 O         1 <0>         0.0000
  13129 WAT       -36.6820  -74.1660   -7.5830 O         1 <0>         0.0000
  13130 WAT       -36.6820  -74.1660   -7.3330 O         1 <0>         0.0000
  13131 WAT       -36.6820  -74.1660   -7.0830 O         1 <0>         0.0002
  13132 WAT       -36.6820  -74.1660   -6.8330 O         1 <0>         0.0014
  13133 WAT       -36.6820  -74.1660   -6.5830 O         1 <0>         0.0066
  13134 WAT       -36.6820  -74.1660   -6.3330 O         1 <0>         0.0179
  13135 WAT       -36.6820  -74.1660   -6.0830 O         1 <0>         0.0327
  13136 WAT       -36.6820  -74.1660   -5.8330 O         1 <0>         0.0423
  13137 WAT       -36.6820  -74.1660   -5.5830 O         1 <0>         0.0418
  13138 WAT       -36.6820  -74.1660   -5.3330 O         1 <0>         0.0357
  13139 WAT       -36.6820  -74.1660   -5.0830 O         1 <0>         0.0303
  13140 WAT       -36.6820  -74.1660   -4.8330 O         1 <0>         0.0265
  13141 WAT       -36.6820  -74.1660   -4.5830 O         1 <0>         0.0220
  13142 WAT       -36.6820  -74.1660   -4.3330 O         1 <0>         0.0164
  13143 WAT       -36.6820  -74.1660   -4.0830 O         1 <0>         0.0112
  13144 WAT       -36.6820  -74.1660   -3.8330 O         1 <0>         0.0072
  13145 WAT       -36.6820  -74.1660   -3.5830 O         1 <0>         0.0044
  13146 WAT       -36.6820  -74.1660   -3.3330 O         1 <0>         0.0025
  13147 WAT       -36.6820  -74.1660   -3.0830 O         1 <0>         0.0011
  13148 WAT       -36.6820  -74.1660   -2.8330 O         1 <0>         0.0003
  13149 WAT       -36.6820  -74.1660   -2.5830 O         1 <0>         0.0000
  13150 WAT       -36.6820  -74.1660   -2.3330 O         1 <0>         0.0000
  13151 WAT       -36.6820  -74.1660   -2.0830 O         1 <0>         0.0000
  13152 WAT       -36.6820  -74.1660   -1.8330 O         1 <0>         0.0000
  13153 WAT       -36.6820  -74.1660   -1.5830 O         1 <0>         0.0000
  13154 WAT       -36.6820  -74.1660   -1.3330 O         1 <0>         0.0000
  13155 WAT       -36.6820  -74.1660   -1.0830 O         1 <0>         0.0000
  13156 WAT       -36.6820  -74.1660   -0.8330 O         1 <0>         0.0000
  13157 WAT       -36.6820  -74.1660   -0.5830 O         1 <0>         0.0000
  13158 WAT       -36.6820  -74.1660   -0.3330 O         1 <0>         0.0000
  13159 WAT       -36.6820  -74.1660   -0.0830 O         1 <0>         0.0000
  13160 WAT       -36.6820  -73.9160   -9.8330 O         1 <0>         0.0000
  13161 WAT       -36.6820  -73.9160   -9.5830 O         1 <0>         0.0000
  13162 WAT       -36.6820  -73.9160   -9.3330 O         1 <0>         0.0000
  13163 WAT       -36.6820  -73.9160   -9.0830 O         1 <0>         0.0000
  13164 WAT       -36.6820  -73.9160   -8.8330 O         1 <0>         0.0000
  13165 WAT       -36.6820  -73.9160   -8.5830 O         1 <0>         0.0000
  13166 WAT       -36.6820  -73.9160   -8.3330 O         1 <0>         0.0000
  13167 WAT       -36.6820  -73.9160   -8.0830 O         1 <0>         0.0000
  13168 WAT       -36.6820  -73.9160   -7.8330 O         1 <0>         0.0000
  13169 WAT       -36.6820  -73.9160   -7.5830 O         1 <0>         0.0000
  13170 WAT       -36.6820  -73.9160   -7.3330 O         1 <0>         0.0000
  13171 WAT       -36.6820  -73.9160   -7.0830 O         1 <0>         0.0004
  13172 WAT       -36.6820  -73.9160   -6.8330 O         1 <0>         0.0030
  13173 WAT       -36.6820  -73.9160   -6.5830 O         1 <0>         0.0122
  13174 WAT       -36.6820  -73.9160   -6.3330 O         1 <0>         0.0314
  13175 WAT       -36.6820  -73.9160   -6.0830 O         1 <0>         0.0554
  13176 WAT       -36.6820  -73.9160   -5.8330 O         1 <0>         0.0688
  13177 WAT       -36.6820  -73.9160   -5.5830 O         1 <0>         0.0631
  13178 WAT       -36.6820  -73.9160   -5.3330 O         1 <0>         0.0470
  13179 WAT       -36.6820  -73.9160   -5.0830 O         1 <0>         0.0330
  13180 WAT       -36.6820  -73.9160   -4.8330 O         1 <0>         0.0244
  13181 WAT       -36.6820  -73.9160   -4.5830 O         1 <0>         0.0182
  13182 WAT       -36.6820  -73.9160   -4.3330 O         1 <0>         0.0128
  13183 WAT       -36.6820  -73.9160   -4.0830 O         1 <0>         0.0085
  13184 WAT       -36.6820  -73.9160   -3.8330 O         1 <0>         0.0054
  13185 WAT       -36.6820  -73.9160   -3.5830 O         1 <0>         0.0034
  13186 WAT       -36.6820  -73.9160   -3.3330 O         1 <0>         0.0019
  13187 WAT       -36.6820  -73.9160   -3.0830 O         1 <0>         0.0009
  13188 WAT       -36.6820  -73.9160   -2.8330 O         1 <0>         0.0003
  13189 WAT       -36.6820  -73.9160   -2.5830 O         1 <0>         0.0000
  13190 WAT       -36.6820  -73.9160   -2.3330 O         1 <0>         0.0000
  13191 WAT       -36.6820  -73.9160   -2.0830 O         1 <0>         0.0000
  13192 WAT       -36.6820  -73.9160   -1.8330 O         1 <0>         0.0000
  13193 WAT       -36.6820  -73.9160   -1.5830 O         1 <0>         0.0000
  13194 WAT       -36.6820  -73.9160   -1.3330 O         1 <0>         0.0000
  13195 WAT       -36.6820  -73.9160   -1.0830 O         1 <0>         0.0000
  13196 WAT       -36.6820  -73.9160   -0.8330 O         1 <0>         0.0000
  13197 WAT       -36.6820  -73.9160   -0.5830 O         1 <0>         0.0000
  13198 WAT       -36.6820  -73.9160   -0.3330 O         1 <0>         0.0000
  13199 WAT       -36.6820  -73.9160   -0.0830 O         1 <0>         0.0000
  13200 WAT       -36.6820  -73.6660   -9.8330 O         1 <0>         0.0000
  13201 WAT       -36.6820  -73.6660   -9.5830 O         1 <0>         0.0000
  13202 WAT       -36.6820  -73.6660   -9.3330 O         1 <0>         0.0000
  13203 WAT       -36.6820  -73.6660   -9.0830 O         1 <0>         0.0000
  13204 WAT       -36.6820  -73.6660   -8.8330 O         1 <0>         0.0000
  13205 WAT       -36.6820  -73.6660   -8.5830 O         1 <0>         0.0000
  13206 WAT       -36.6820  -73.6660   -8.3330 O         1 <0>         0.0000
  13207 WAT       -36.6820  -73.6660   -8.0830 O         1 <0>         0.0000
  13208 WAT       -36.6820  -73.6660   -7.8330 O         1 <0>         0.0000
  13209 WAT       -36.6820  -73.6660   -7.5830 O         1 <0>         0.0000
  13210 WAT       -36.6820  -73.6660   -7.3330 O         1 <0>         0.0000
  13211 WAT       -36.6820  -73.6660   -7.0830 O         1 <0>         0.0005
  13212 WAT       -36.6820  -73.6660   -6.8330 O         1 <0>         0.0038
  13213 WAT       -36.6820  -73.6660   -6.5830 O         1 <0>         0.0150
  13214 WAT       -36.6820  -73.6660   -6.3330 O         1 <0>         0.0383
  13215 WAT       -36.6820  -73.6660   -6.0830 O         1 <0>         0.0667
  13216 WAT       -36.6820  -73.6660   -5.8330 O         1 <0>         0.0809
  13217 WAT       -36.6820  -73.6660   -5.5830 O         1 <0>         0.0707
  13218 WAT       -36.6820  -73.6660   -5.3330 O         1 <0>         0.0476
  13219 WAT       -36.6820  -73.6660   -5.0830 O         1 <0>         0.0281
  13220 WAT       -36.6820  -73.6660   -4.8330 O         1 <0>         0.0171
  13221 WAT       -36.6820  -73.6660   -4.5830 O         1 <0>         0.0111
  13222 WAT       -36.6820  -73.6660   -4.3330 O         1 <0>         0.0072
  13223 WAT       -36.6820  -73.6660   -4.0830 O         1 <0>         0.0045
  13224 WAT       -36.6820  -73.6660   -3.8330 O         1 <0>         0.0028
  13225 WAT       -36.6820  -73.6660   -3.5830 O         1 <0>         0.0018
  13226 WAT       -36.6820  -73.6660   -3.3330 O         1 <0>         0.0010
  13227 WAT       -36.6820  -73.6660   -3.0830 O         1 <0>         0.0005
  13228 WAT       -36.6820  -73.6660   -2.8330 O         1 <0>         0.0002
  13229 WAT       -36.6820  -73.6660   -2.5830 O         1 <0>         0.0000
  13230 WAT       -36.6820  -73.6660   -2.3330 O         1 <0>         0.0000
  13231 WAT       -36.6820  -73.6660   -2.0830 O         1 <0>         0.0000
  13232 WAT       -36.6820  -73.6660   -1.8330 O         1 <0>         0.0000
  13233 WAT       -36.6820  -73.6660   -1.5830 O         1 <0>         0.0000
  13234 WAT       -36.6820  -73.6660   -1.3330 O         1 <0>         0.0000
  13235 WAT       -36.6820  -73.6660   -1.0830 O         1 <0>         0.0000
  13236 WAT       -36.6820  -73.6660   -0.8330 O         1 <0>         0.0000
  13237 WAT       -36.6820  -73.6660   -0.5830 O         1 <0>         0.0000
  13238 WAT       -36.6820  -73.6660   -0.3330 O         1 <0>         0.0000
  13239 WAT       -36.6820  -73.6660   -0.0830 O         1 <0>         0.0000
  13240 WAT       -36.6820  -73.4160   -9.8330 O         1 <0>         0.0000
  13241 WAT       -36.6820  -73.4160   -9.5830 O         1 <0>         0.0000
  13242 WAT       -36.6820  -73.4160   -9.3330 O         1 <0>         0.0000
  13243 WAT       -36.6820  -73.4160   -9.0830 O         1 <0>         0.0000
  13244 WAT       -36.6820  -73.4160   -8.8330 O         1 <0>         0.0000
  13245 WAT       -36.6820  -73.4160   -8.5830 O         1 <0>         0.0000
  13246 WAT       -36.6820  -73.4160   -8.3330 O         1 <0>         0.0000
  13247 WAT       -36.6820  -73.4160   -8.0830 O         1 <0>         0.0000
  13248 WAT       -36.6820  -73.4160   -7.8330 O         1 <0>         0.0000
  13249 WAT       -36.6820  -73.4160   -7.5830 O         1 <0>         0.0000
  13250 WAT       -36.6820  -73.4160   -7.3330 O         1 <0>         0.0000
  13251 WAT       -36.6820  -73.4160   -7.0830 O         1 <0>         0.0004
  13252 WAT       -36.6820  -73.4160   -6.8330 O         1 <0>         0.0031
  13253 WAT       -36.6820  -73.4160   -6.5830 O         1 <0>         0.0124
  13254 WAT       -36.6820  -73.4160   -6.3330 O         1 <0>         0.0322
  13255 WAT       -36.6820  -73.4160   -6.0830 O         1 <0>         0.0561
  13256 WAT       -36.6820  -73.4160   -5.8330 O         1 <0>         0.0675
  13257 WAT       -36.6820  -73.4160   -5.5830 O         1 <0>         0.0571
  13258 WAT       -36.6820  -73.4160   -5.3330 O         1 <0>         0.0358
  13259 WAT       -36.6820  -73.4160   -5.0830 O         1 <0>         0.0183
  13260 WAT       -36.6820  -73.4160   -4.8330 O         1 <0>         0.0090
  13261 WAT       -36.6820  -73.4160   -4.5830 O         1 <0>         0.0049
  13262 WAT       -36.6820  -73.4160   -4.3330 O         1 <0>         0.0028
  13263 WAT       -36.6820  -73.4160   -4.0830 O         1 <0>         0.0017
  13264 WAT       -36.6820  -73.4160   -3.8330 O         1 <0>         0.0010
  13265 WAT       -36.6820  -73.4160   -3.5830 O         1 <0>         0.0006
  13266 WAT       -36.6820  -73.4160   -3.3330 O         1 <0>         0.0003
  13267 WAT       -36.6820  -73.4160   -3.0830 O         1 <0>         0.0001
  13268 WAT       -36.6820  -73.4160   -2.8330 O         1 <0>         0.0000
  13269 WAT       -36.6820  -73.4160   -2.5830 O         1 <0>         0.0000
  13270 WAT       -36.6820  -73.4160   -2.3330 O         1 <0>         0.0000
  13271 WAT       -36.6820  -73.4160   -2.0830 O         1 <0>         0.0000
  13272 WAT       -36.6820  -73.4160   -1.8330 O         1 <0>         0.0000
  13273 WAT       -36.6820  -73.4160   -1.5830 O         1 <0>         0.0000
  13274 WAT       -36.6820  -73.4160   -1.3330 O         1 <0>         0.0000
  13275 WAT       -36.6820  -73.4160   -1.0830 O         1 <0>         0.0000
  13276 WAT       -36.6820  -73.4160   -0.8330 O         1 <0>         0.0000
  13277 WAT       -36.6820  -73.4160   -0.5830 O         1 <0>         0.0000
  13278 WAT       -36.6820  -73.4160   -0.3330 O         1 <0>         0.0000
  13279 WAT       -36.6820  -73.4160   -0.0830 O         1 <0>         0.0000
  13280 WAT       -36.6820  -73.1660   -9.8330 O         1 <0>         0.0000
  13281 WAT       -36.6820  -73.1660   -9.5830 O         1 <0>         0.0000
  13282 WAT       -36.6820  -73.1660   -9.3330 O         1 <0>         0.0000
  13283 WAT       -36.6820  -73.1660   -9.0830 O         1 <0>         0.0000
  13284 WAT       -36.6820  -73.1660   -8.8330 O         1 <0>         0.0000
  13285 WAT       -36.6820  -73.1660   -8.5830 O         1 <0>         0.0000
  13286 WAT       -36.6820  -73.1660   -8.3330 O         1 <0>         0.0000
  13287 WAT       -36.6820  -73.1660   -8.0830 O         1 <0>         0.0000
  13288 WAT       -36.6820  -73.1660   -7.8330 O         1 <0>         0.0000
  13289 WAT       -36.6820  -73.1660   -7.5830 O         1 <0>         0.0000
  13290 WAT       -36.6820  -73.1660   -7.3330 O         1 <0>         0.0000
  13291 WAT       -36.6820  -73.1660   -7.0830 O         1 <0>         0.0002
  13292 WAT       -36.6820  -73.1660   -6.8330 O         1 <0>         0.0015
  13293 WAT       -36.6820  -73.1660   -6.5830 O         1 <0>         0.0069
  13294 WAT       -36.6820  -73.1660   -6.3330 O         1 <0>         0.0185
  13295 WAT       -36.6820  -73.1660   -6.0830 O         1 <0>         0.0328
  13296 WAT       -36.6820  -73.1660   -5.8330 O         1 <0>         0.0394
  13297 WAT       -36.6820  -73.1660   -5.5830 O         1 <0>         0.0327
  13298 WAT       -36.6820  -73.1660   -5.3330 O         1 <0>         0.0193
  13299 WAT       -36.6820  -73.1660   -5.0830 O         1 <0>         0.0087
  13300 WAT       -36.6820  -73.1660   -4.8330 O         1 <0>         0.0034
  13301 WAT       -36.6820  -73.1660   -4.5830 O         1 <0>         0.0014
  13302 WAT       -36.6820  -73.1660   -4.3330 O         1 <0>         0.0007
  13303 WAT       -36.6820  -73.1660   -4.0830 O         1 <0>         0.0003
  13304 WAT       -36.6820  -73.1660   -3.8330 O         1 <0>         0.0002
  13305 WAT       -36.6820  -73.1660   -3.5830 O         1 <0>         0.0001
  13306 WAT       -36.6820  -73.1660   -3.3330 O         1 <0>         0.0000
  13307 WAT       -36.6820  -73.1660   -3.0830 O         1 <0>         0.0000
  13308 WAT       -36.6820  -73.1660   -2.8330 O         1 <0>         0.0000
  13309 WAT       -36.6820  -73.1660   -2.5830 O         1 <0>         0.0000
  13310 WAT       -36.6820  -73.1660   -2.3330 O         1 <0>         0.0000
  13311 WAT       -36.6820  -73.1660   -2.0830 O         1 <0>         0.0000
  13312 WAT       -36.6820  -73.1660   -1.8330 O         1 <0>         0.0000
  13313 WAT       -36.6820  -73.1660   -1.5830 O         1 <0>         0.0000
  13314 WAT       -36.6820  -73.1660   -1.3330 O         1 <0>         0.0000
  13315 WAT       -36.6820  -73.1660   -1.0830 O         1 <0>         0.0000
  13316 WAT       -36.6820  -73.1660   -0.8330 O         1 <0>         0.0000
  13317 WAT       -36.6820  -73.1660   -0.5830 O         1 <0>         0.0000
  13318 WAT       -36.6820  -73.1660   -0.3330 O         1 <0>         0.0000
  13319 WAT       -36.6820  -73.1660   -0.0830 O         1 <0>         0.0000
  13320 WAT       -36.6820  -72.9160   -9.8330 O         1 <0>         0.0000
  13321 WAT       -36.6820  -72.9160   -9.5830 O         1 <0>         0.0000
  13322 WAT       -36.6820  -72.9160   -9.3330 O         1 <0>         0.0000
  13323 WAT       -36.6820  -72.9160   -9.0830 O         1 <0>         0.0000
  13324 WAT       -36.6820  -72.9160   -8.8330 O         1 <0>         0.0000
  13325 WAT       -36.6820  -72.9160   -8.5830 O         1 <0>         0.0000
  13326 WAT       -36.6820  -72.9160   -8.3330 O         1 <0>         0.0000
  13327 WAT       -36.6820  -72.9160   -8.0830 O         1 <0>         0.0000
  13328 WAT       -36.6820  -72.9160   -7.8330 O         1 <0>         0.0000
  13329 WAT       -36.6820  -72.9160   -7.5830 O         1 <0>         0.0000
  13330 WAT       -36.6820  -72.9160   -7.3330 O         1 <0>         0.0000
  13331 WAT       -36.6820  -72.9160   -7.0830 O         1 <0>         0.0000
  13332 WAT       -36.6820  -72.9160   -6.8330 O         1 <0>         0.0004
  13333 WAT       -36.6820  -72.9160   -6.5830 O         1 <0>         0.0024
  13334 WAT       -36.6820  -72.9160   -6.3330 O         1 <0>         0.0070
  13335 WAT       -36.6820  -72.9160   -6.0830 O         1 <0>         0.0129
  13336 WAT       -36.6820  -72.9160   -5.8330 O         1 <0>         0.0157
  13337 WAT       -36.6820  -72.9160   -5.5830 O         1 <0>         0.0129
  13338 WAT       -36.6820  -72.9160   -5.3330 O         1 <0>         0.0072
  13339 WAT       -36.6820  -72.9160   -5.0830 O         1 <0>         0.0028
  13340 WAT       -36.6820  -72.9160   -4.8330 O         1 <0>         0.0008
  13341 WAT       -36.6820  -72.9160   -4.5830 O         1 <0>         0.0002
  13342 WAT       -36.6820  -72.9160   -4.3330 O         1 <0>         0.0001
  13343 WAT       -36.6820  -72.9160   -4.0830 O         1 <0>         0.0000
  13344 WAT       -36.6820  -72.9160   -3.8330 O         1 <0>         0.0000
  13345 WAT       -36.6820  -72.9160   -3.5830 O         1 <0>         0.0000
  13346 WAT       -36.6820  -72.9160   -3.3330 O         1 <0>         0.0000
  13347 WAT       -36.6820  -72.9160   -3.0830 O         1 <0>         0.0000
  13348 WAT       -36.6820  -72.9160   -2.8330 O         1 <0>         0.0000
  13349 WAT       -36.6820  -72.9160   -2.5830 O         1 <0>         0.0000
  13350 WAT       -36.6820  -72.9160   -2.3330 O         1 <0>         0.0000
  13351 WAT       -36.6820  -72.9160   -2.0830 O         1 <0>         0.0000
  13352 WAT       -36.6820  -72.9160   -1.8330 O         1 <0>         0.0000
  13353 WAT       -36.6820  -72.9160   -1.5830 O         1 <0>         0.0000
  13354 WAT       -36.6820  -72.9160   -1.3330 O         1 <0>         0.0000
  13355 WAT       -36.6820  -72.9160   -1.0830 O         1 <0>         0.0000
  13356 WAT       -36.6820  -72.9160   -0.8330 O         1 <0>         0.0000
  13357 WAT       -36.6820  -72.9160   -0.5830 O         1 <0>         0.0000
  13358 WAT       -36.6820  -72.9160   -0.3330 O         1 <0>         0.0000
  13359 WAT       -36.6820  -72.9160   -0.0830 O         1 <0>         0.0000
  13360 WAT       -36.6820  -72.6660   -9.8330 O         1 <0>         0.0000
  13361 WAT       -36.6820  -72.6660   -9.5830 O         1 <0>         0.0000
  13362 WAT       -36.6820  -72.6660   -9.3330 O         1 <0>         0.0000
  13363 WAT       -36.6820  -72.6660   -9.0830 O         1 <0>         0.0000
  13364 WAT       -36.6820  -72.6660   -8.8330 O         1 <0>         0.0000
  13365 WAT       -36.6820  -72.6660   -8.5830 O         1 <0>         0.0000
  13366 WAT       -36.6820  -72.6660   -8.3330 O         1 <0>         0.0000
  13367 WAT       -36.6820  -72.6660   -8.0830 O         1 <0>         0.0000
  13368 WAT       -36.6820  -72.6660   -7.8330 O         1 <0>         0.0000
  13369 WAT       -36.6820  -72.6660   -7.5830 O         1 <0>         0.0000
  13370 WAT       -36.6820  -72.6660   -7.3330 O         1 <0>         0.0000
  13371 WAT       -36.6820  -72.6660   -7.0830 O         1 <0>         0.0000
  13372 WAT       -36.6820  -72.6660   -6.8330 O         1 <0>         0.0001
  13373 WAT       -36.6820  -72.6660   -6.5830 O         1 <0>         0.0004
  13374 WAT       -36.6820  -72.6660   -6.3330 O         1 <0>         0.0016
  13375 WAT       -36.6820  -72.6660   -6.0830 O         1 <0>         0.0033
  13376 WAT       -36.6820  -72.6660   -5.8330 O         1 <0>         0.0041
  13377 WAT       -36.6820  -72.6660   -5.5830 O         1 <0>         0.0033
  13378 WAT       -36.6820  -72.6660   -5.3330 O         1 <0>         0.0017
  13379 WAT       -36.6820  -72.6660   -5.0830 O         1 <0>         0.0005
  13380 WAT       -36.6820  -72.6660   -4.8330 O         1 <0>         0.0001
  13381 WAT       -36.6820  -72.6660   -4.5830 O         1 <0>         0.0000
  13382 WAT       -36.6820  -72.6660   -4.3330 O         1 <0>         0.0000
  13383 WAT       -36.6820  -72.6660   -4.0830 O         1 <0>         0.0000
  13384 WAT       -36.6820  -72.6660   -3.8330 O         1 <0>         0.0000
  13385 WAT       -36.6820  -72.6660   -3.5830 O         1 <0>         0.0000
  13386 WAT       -36.6820  -72.6660   -3.3330 O         1 <0>         0.0000
  13387 WAT       -36.6820  -72.6660   -3.0830 O         1 <0>         0.0000
  13388 WAT       -36.6820  -72.6660   -2.8330 O         1 <0>         0.0000
  13389 WAT       -36.6820  -72.6660   -2.5830 O         1 <0>         0.0000
  13390 WAT       -36.6820  -72.6660   -2.3330 O         1 <0>         0.0000
  13391 WAT       -36.6820  -72.6660   -2.0830 O         1 <0>         0.0000
  13392 WAT       -36.6820  -72.6660   -1.8330 O         1 <0>         0.0000
  13393 WAT       -36.6820  -72.6660   -1.5830 O         1 <0>         0.0000
  13394 WAT       -36.6820  -72.6660   -1.3330 O         1 <0>         0.0000
  13395 WAT       -36.6820  -72.6660   -1.0830 O         1 <0>         0.0000
  13396 WAT       -36.6820  -72.6660   -0.8330 O         1 <0>         0.0000
  13397 WAT       -36.6820  -72.6660   -0.5830 O         1 <0>         0.0000
  13398 WAT       -36.6820  -72.6660   -0.3330 O         1 <0>         0.0000
  13399 WAT       -36.6820  -72.6660   -0.0830 O         1 <0>         0.0000
  13400 WAT       -36.6820  -72.4160   -9.8330 O         1 <0>         0.0000
  13401 WAT       -36.6820  -72.4160   -9.5830 O         1 <0>         0.0000
  13402 WAT       -36.6820  -72.4160   -9.3330 O         1 <0>         0.0000
  13403 WAT       -36.6820  -72.4160   -9.0830 O         1 <0>         0.0000
  13404 WAT       -36.6820  -72.4160   -8.8330 O         1 <0>         0.0000
  13405 WAT       -36.6820  -72.4160   -8.5830 O         1 <0>         0.0000
  13406 WAT       -36.6820  -72.4160   -8.3330 O         1 <0>         0.0000
  13407 WAT       -36.6820  -72.4160   -8.0830 O         1 <0>         0.0000
  13408 WAT       -36.6820  -72.4160   -7.8330 O         1 <0>         0.0000
  13409 WAT       -36.6820  -72.4160   -7.5830 O         1 <0>         0.0000
  13410 WAT       -36.6820  -72.4160   -7.3330 O         1 <0>         0.0000
  13411 WAT       -36.6820  -72.4160   -7.0830 O         1 <0>         0.0000
  13412 WAT       -36.6820  -72.4160   -6.8330 O         1 <0>         0.0000
  13413 WAT       -36.6820  -72.4160   -6.5830 O         1 <0>         0.0000
  13414 WAT       -36.6820  -72.4160   -6.3330 O         1 <0>         0.0002
  13415 WAT       -36.6820  -72.4160   -6.0830 O         1 <0>         0.0005
  13416 WAT       -36.6820  -72.4160   -5.8330 O         1 <0>         0.0006
  13417 WAT       -36.6820  -72.4160   -5.5830 O         1 <0>         0.0005
  13418 WAT       -36.6820  -72.4160   -5.3330 O         1 <0>         0.0002
  13419 WAT       -36.6820  -72.4160   -5.0830 O         1 <0>         0.0001
  13420 WAT       -36.6820  -72.4160   -4.8330 O         1 <0>         0.0000
  13421 WAT       -36.6820  -72.4160   -4.5830 O         1 <0>         0.0000
  13422 WAT       -36.6820  -72.4160   -4.3330 O         1 <0>         0.0000
  13423 WAT       -36.6820  -72.4160   -4.0830 O         1 <0>         0.0000
  13424 WAT       -36.6820  -72.4160   -3.8330 O         1 <0>         0.0000
  13425 WAT       -36.6820  -72.4160   -3.5830 O         1 <0>         0.0000
  13426 WAT       -36.6820  -72.4160   -3.3330 O         1 <0>         0.0000
  13427 WAT       -36.6820  -72.4160   -3.0830 O         1 <0>         0.0000
  13428 WAT       -36.6820  -72.4160   -2.8330 O         1 <0>         0.0000
  13429 WAT       -36.6820  -72.4160   -2.5830 O         1 <0>         0.0000
  13430 WAT       -36.6820  -72.4160   -2.3330 O         1 <0>         0.0000
  13431 WAT       -36.6820  -72.4160   -2.0830 O         1 <0>         0.0000
  13432 WAT       -36.6820  -72.4160   -1.8330 O         1 <0>         0.0000
  13433 WAT       -36.6820  -72.4160   -1.5830 O         1 <0>         0.0000
  13434 WAT       -36.6820  -72.4160   -1.3330 O         1 <0>         0.0000
  13435 WAT       -36.6820  -72.4160   -1.0830 O         1 <0>         0.0000
  13436 WAT       -36.6820  -72.4160   -0.8330 O         1 <0>         0.0000
  13437 WAT       -36.6820  -72.4160   -0.5830 O         1 <0>         0.0000
  13438 WAT       -36.6820  -72.4160   -0.3330 O         1 <0>         0.0000
  13439 WAT       -36.6820  -72.4160   -0.0830 O         1 <0>         0.0000
  13440 WAT       -36.6820  -72.1660   -9.8330 O         1 <0>         0.0000
  13441 WAT       -36.6820  -72.1660   -9.5830 O         1 <0>         0.0000
  13442 WAT       -36.6820  -72.1660   -9.3330 O         1 <0>         0.0000
  13443 WAT       -36.6820  -72.1660   -9.0830 O         1 <0>         0.0000
  13444 WAT       -36.6820  -72.1660   -8.8330 O         1 <0>         0.0000
  13445 WAT       -36.6820  -72.1660   -8.5830 O         1 <0>         0.0000
  13446 WAT       -36.6820  -72.1660   -8.3330 O         1 <0>         0.0000
  13447 WAT       -36.6820  -72.1660   -8.0830 O         1 <0>         0.0000
  13448 WAT       -36.6820  -72.1660   -7.8330 O         1 <0>         0.0000
  13449 WAT       -36.6820  -72.1660   -7.5830 O         1 <0>         0.0000
  13450 WAT       -36.6820  -72.1660   -7.3330 O         1 <0>         0.0000
  13451 WAT       -36.6820  -72.1660   -7.0830 O         1 <0>         0.0000
  13452 WAT       -36.6820  -72.1660   -6.8330 O         1 <0>         0.0000
  13453 WAT       -36.6820  -72.1660   -6.5830 O         1 <0>         0.0000
  13454 WAT       -36.6820  -72.1660   -6.3330 O         1 <0>         0.0000
  13455 WAT       -36.6820  -72.1660   -6.0830 O         1 <0>         0.0000
  13456 WAT       -36.6820  -72.1660   -5.8330 O         1 <0>         0.0001
  13457 WAT       -36.6820  -72.1660   -5.5830 O         1 <0>         0.0000
  13458 WAT       -36.6820  -72.1660   -5.3330 O         1 <0>         0.0000
  13459 WAT       -36.6820  -72.1660   -5.0830 O         1 <0>         0.0000
  13460 WAT       -36.6820  -72.1660   -4.8330 O         1 <0>         0.0000
  13461 WAT       -36.6820  -72.1660   -4.5830 O         1 <0>         0.0000
  13462 WAT       -36.6820  -72.1660   -4.3330 O         1 <0>         0.0000
  13463 WAT       -36.6820  -72.1660   -4.0830 O         1 <0>         0.0000
  13464 WAT       -36.6820  -72.1660   -3.8330 O         1 <0>         0.0000
  13465 WAT       -36.6820  -72.1660   -3.5830 O         1 <0>         0.0000
  13466 WAT       -36.6820  -72.1660   -3.3330 O         1 <0>         0.0000
  13467 WAT       -36.6820  -72.1660   -3.0830 O         1 <0>         0.0000
  13468 WAT       -36.6820  -72.1660   -2.8330 O         1 <0>         0.0000
  13469 WAT       -36.6820  -72.1660   -2.5830 O         1 <0>         0.0000
  13470 WAT       -36.6820  -72.1660   -2.3330 O         1 <0>         0.0000
  13471 WAT       -36.6820  -72.1660   -2.0830 O         1 <0>         0.0000
  13472 WAT       -36.6820  -72.1660   -1.8330 O         1 <0>         0.0000
  13473 WAT       -36.6820  -72.1660   -1.5830 O         1 <0>         0.0000
  13474 WAT       -36.6820  -72.1660   -1.3330 O         1 <0>         0.0000
  13475 WAT       -36.6820  -72.1660   -1.0830 O         1 <0>         0.0000
  13476 WAT       -36.6820  -72.1660   -0.8330 O         1 <0>         0.0000
  13477 WAT       -36.6820  -72.1660   -0.5830 O         1 <0>         0.0000
  13478 WAT       -36.6820  -72.1660   -0.3330 O         1 <0>         0.0000
  13479 WAT       -36.6820  -72.1660   -0.0830 O         1 <0>         0.0000
  13480 WAT       -36.6820  -71.9160   -9.8330 O         1 <0>         0.0000
  13481 WAT       -36.6820  -71.9160   -9.5830 O         1 <0>         0.0000
  13482 WAT       -36.6820  -71.9160   -9.3330 O         1 <0>         0.0000
  13483 WAT       -36.6820  -71.9160   -9.0830 O         1 <0>         0.0000
  13484 WAT       -36.6820  -71.9160   -8.8330 O         1 <0>         0.0000
  13485 WAT       -36.6820  -71.9160   -8.5830 O         1 <0>         0.0000
  13486 WAT       -36.6820  -71.9160   -8.3330 O         1 <0>         0.0000
  13487 WAT       -36.6820  -71.9160   -8.0830 O         1 <0>         0.0000
  13488 WAT       -36.6820  -71.9160   -7.8330 O         1 <0>         0.0000
  13489 WAT       -36.6820  -71.9160   -7.5830 O         1 <0>         0.0000
  13490 WAT       -36.6820  -71.9160   -7.3330 O         1 <0>         0.0000
  13491 WAT       -36.6820  -71.9160   -7.0830 O         1 <0>         0.0000
  13492 WAT       -36.6820  -71.9160   -6.8330 O         1 <0>         0.0000
  13493 WAT       -36.6820  -71.9160   -6.5830 O         1 <0>         0.0000
  13494 WAT       -36.6820  -71.9160   -6.3330 O         1 <0>         0.0000
  13495 WAT       -36.6820  -71.9160   -6.0830 O         1 <0>         0.0000
  13496 WAT       -36.6820  -71.9160   -5.8330 O         1 <0>         0.0000
  13497 WAT       -36.6820  -71.9160   -5.5830 O         1 <0>         0.0000
  13498 WAT       -36.6820  -71.9160   -5.3330 O         1 <0>         0.0000
  13499 WAT       -36.6820  -71.9160   -5.0830 O         1 <0>         0.0000
  13500 WAT       -36.6820  -71.9160   -4.8330 O         1 <0>         0.0000
  13501 WAT       -36.6820  -71.9160   -4.5830 O         1 <0>         0.0000
  13502 WAT       -36.6820  -71.9160   -4.3330 O         1 <0>         0.0000
  13503 WAT       -36.6820  -71.9160   -4.0830 O         1 <0>         0.0000
  13504 WAT       -36.6820  -71.9160   -3.8330 O         1 <0>         0.0000
  13505 WAT       -36.6820  -71.9160   -3.5830 O         1 <0>         0.0000
  13506 WAT       -36.6820  -71.9160   -3.3330 O         1 <0>         0.0000
  13507 WAT       -36.6820  -71.9160   -3.0830 O         1 <0>         0.0000
  13508 WAT       -36.6820  -71.9160   -2.8330 O         1 <0>         0.0000
  13509 WAT       -36.6820  -71.9160   -2.5830 O         1 <0>         0.0000
  13510 WAT       -36.6820  -71.9160   -2.3330 O         1 <0>         0.0000
  13511 WAT       -36.6820  -71.9160   -2.0830 O         1 <0>         0.0000
  13512 WAT       -36.6820  -71.9160   -1.8330 O         1 <0>         0.0000
  13513 WAT       -36.6820  -71.9160   -1.5830 O         1 <0>         0.0000
  13514 WAT       -36.6820  -71.9160   -1.3330 O         1 <0>         0.0000
  13515 WAT       -36.6820  -71.9160   -1.0830 O         1 <0>         0.0000
  13516 WAT       -36.6820  -71.9160   -0.8330 O         1 <0>         0.0000
  13517 WAT       -36.6820  -71.9160   -0.5830 O         1 <0>         0.0000
  13518 WAT       -36.6820  -71.9160   -0.3330 O         1 <0>         0.0000
  13519 WAT       -36.6820  -71.9160   -0.0830 O         1 <0>         0.0000
  13520 WAT       -36.6820  -71.6660   -9.8330 O         1 <0>         0.0000
  13521 WAT       -36.6820  -71.6660   -9.5830 O         1 <0>         0.0000
  13522 WAT       -36.6820  -71.6660   -9.3330 O         1 <0>         0.0000
  13523 WAT       -36.6820  -71.6660   -9.0830 O         1 <0>         0.0000
  13524 WAT       -36.6820  -71.6660   -8.8330 O         1 <0>         0.0000
  13525 WAT       -36.6820  -71.6660   -8.5830 O         1 <0>         0.0000
  13526 WAT       -36.6820  -71.6660   -8.3330 O         1 <0>         0.0000
  13527 WAT       -36.6820  -71.6660   -8.0830 O         1 <0>         0.0000
  13528 WAT       -36.6820  -71.6660   -7.8330 O         1 <0>         0.0000
  13529 WAT       -36.6820  -71.6660   -7.5830 O         1 <0>         0.0000
  13530 WAT       -36.6820  -71.6660   -7.3330 O         1 <0>         0.0000
  13531 WAT       -36.6820  -71.6660   -7.0830 O         1 <0>         0.0000
  13532 WAT       -36.6820  -71.6660   -6.8330 O         1 <0>         0.0000
  13533 WAT       -36.6820  -71.6660   -6.5830 O         1 <0>         0.0000
  13534 WAT       -36.6820  -71.6660   -6.3330 O         1 <0>         0.0000
  13535 WAT       -36.6820  -71.6660   -6.0830 O         1 <0>         0.0000
  13536 WAT       -36.6820  -71.6660   -5.8330 O         1 <0>         0.0000
  13537 WAT       -36.6820  -71.6660   -5.5830 O         1 <0>         0.0000
  13538 WAT       -36.6820  -71.6660   -5.3330 O         1 <0>         0.0000
  13539 WAT       -36.6820  -71.6660   -5.0830 O         1 <0>         0.0000
  13540 WAT       -36.6820  -71.6660   -4.8330 O         1 <0>         0.0000
  13541 WAT       -36.6820  -71.6660   -4.5830 O         1 <0>         0.0000
  13542 WAT       -36.6820  -71.6660   -4.3330 O         1 <0>         0.0000
  13543 WAT       -36.6820  -71.6660   -4.0830 O         1 <0>         0.0000
  13544 WAT       -36.6820  -71.6660   -3.8330 O         1 <0>         0.0000
  13545 WAT       -36.6820  -71.6660   -3.5830 O         1 <0>         0.0000
  13546 WAT       -36.6820  -71.6660   -3.3330 O         1 <0>         0.0000
  13547 WAT       -36.6820  -71.6660   -3.0830 O         1 <0>         0.0000
  13548 WAT       -36.6820  -71.6660   -2.8330 O         1 <0>         0.0000
  13549 WAT       -36.6820  -71.6660   -2.5830 O         1 <0>         0.0000
  13550 WAT       -36.6820  -71.6660   -2.3330 O         1 <0>         0.0000
  13551 WAT       -36.6820  -71.6660   -2.0830 O         1 <0>         0.0000
  13552 WAT       -36.6820  -71.6660   -1.8330 O         1 <0>         0.0000
  13553 WAT       -36.6820  -71.6660   -1.5830 O         1 <0>         0.0000
  13554 WAT       -36.6820  -71.6660   -1.3330 O         1 <0>         0.0000
  13555 WAT       -36.6820  -71.6660   -1.0830 O         1 <0>         0.0000
  13556 WAT       -36.6820  -71.6660   -0.8330 O         1 <0>         0.0000
  13557 WAT       -36.6820  -71.6660   -0.5830 O         1 <0>         0.0000
  13558 WAT       -36.6820  -71.6660   -0.3330 O         1 <0>         0.0000
  13559 WAT       -36.6820  -71.6660   -0.0830 O         1 <0>         0.0000
  13560 WAT       -36.6820  -71.4160   -9.8330 O         1 <0>         0.0000
  13561 WAT       -36.6820  -71.4160   -9.5830 O         1 <0>         0.0000
  13562 WAT       -36.6820  -71.4160   -9.3330 O         1 <0>         0.0000
  13563 WAT       -36.6820  -71.4160   -9.0830 O         1 <0>         0.0000
  13564 WAT       -36.6820  -71.4160   -8.8330 O         1 <0>         0.0000
  13565 WAT       -36.6820  -71.4160   -8.5830 O         1 <0>         0.0000
  13566 WAT       -36.6820  -71.4160   -8.3330 O         1 <0>         0.0000
  13567 WAT       -36.6820  -71.4160   -8.0830 O         1 <0>         0.0000
  13568 WAT       -36.6820  -71.4160   -7.8330 O         1 <0>         0.0000
  13569 WAT       -36.6820  -71.4160   -7.5830 O         1 <0>         0.0000
  13570 WAT       -36.6820  -71.4160   -7.3330 O         1 <0>         0.0000
  13571 WAT       -36.6820  -71.4160   -7.0830 O         1 <0>         0.0000
  13572 WAT       -36.6820  -71.4160   -6.8330 O         1 <0>         0.0000
  13573 WAT       -36.6820  -71.4160   -6.5830 O         1 <0>         0.0000
  13574 WAT       -36.6820  -71.4160   -6.3330 O         1 <0>         0.0000
  13575 WAT       -36.6820  -71.4160   -6.0830 O         1 <0>         0.0000
  13576 WAT       -36.6820  -71.4160   -5.8330 O         1 <0>         0.0000
  13577 WAT       -36.6820  -71.4160   -5.5830 O         1 <0>         0.0000
  13578 WAT       -36.6820  -71.4160   -5.3330 O         1 <0>         0.0000
  13579 WAT       -36.6820  -71.4160   -5.0830 O         1 <0>         0.0000
  13580 WAT       -36.6820  -71.4160   -4.8330 O         1 <0>         0.0000
  13581 WAT       -36.6820  -71.4160   -4.5830 O         1 <0>         0.0000
  13582 WAT       -36.6820  -71.4160   -4.3330 O         1 <0>         0.0000
  13583 WAT       -36.6820  -71.4160   -4.0830 O         1 <0>         0.0000
  13584 WAT       -36.6820  -71.4160   -3.8330 O         1 <0>         0.0000
  13585 WAT       -36.6820  -71.4160   -3.5830 O         1 <0>         0.0000
  13586 WAT       -36.6820  -71.4160   -3.3330 O         1 <0>         0.0000
  13587 WAT       -36.6820  -71.4160   -3.0830 O         1 <0>         0.0000
  13588 WAT       -36.6820  -71.4160   -2.8330 O         1 <0>         0.0000
  13589 WAT       -36.6820  -71.4160   -2.5830 O         1 <0>         0.0000
  13590 WAT       -36.6820  -71.4160   -2.3330 O         1 <0>         0.0000
  13591 WAT       -36.6820  -71.4160   -2.0830 O         1 <0>         0.0000
  13592 WAT       -36.6820  -71.4160   -1.8330 O         1 <0>         0.0000
  13593 WAT       -36.6820  -71.4160   -1.5830 O         1 <0>         0.0000
  13594 WAT       -36.6820  -71.4160   -1.3330 O         1 <0>         0.0000
  13595 WAT       -36.6820  -71.4160   -1.0830 O         1 <0>         0.0000
  13596 WAT       -36.6820  -71.4160   -0.8330 O         1 <0>         0.0000
  13597 WAT       -36.6820  -71.4160   -0.5830 O         1 <0>         0.0000
  13598 WAT       -36.6820  -71.4160   -0.3330 O         1 <0>         0.0000
  13599 WAT       -36.6820  -71.4160   -0.0830 O         1 <0>         0.0000
  13600 WAT       -36.6820  -71.1660   -9.8330 O         1 <0>         0.0000
  13601 WAT       -36.6820  -71.1660   -9.5830 O         1 <0>         0.0000
  13602 WAT       -36.6820  -71.1660   -9.3330 O         1 <0>         0.0000
  13603 WAT       -36.6820  -71.1660   -9.0830 O         1 <0>         0.0000
  13604 WAT       -36.6820  -71.1660   -8.8330 O         1 <0>         0.0000
  13605 WAT       -36.6820  -71.1660   -8.5830 O         1 <0>         0.0000
  13606 WAT       -36.6820  -71.1660   -8.3330 O         1 <0>         0.0000
  13607 WAT       -36.6820  -71.1660   -8.0830 O         1 <0>         0.0000
  13608 WAT       -36.6820  -71.1660   -7.8330 O         1 <0>         0.0000
  13609 WAT       -36.6820  -71.1660   -7.5830 O         1 <0>         0.0000
  13610 WAT       -36.6820  -71.1660   -7.3330 O         1 <0>         0.0000
  13611 WAT       -36.6820  -71.1660   -7.0830 O         1 <0>         0.0000
  13612 WAT       -36.6820  -71.1660   -6.8330 O         1 <0>         0.0000
  13613 WAT       -36.6820  -71.1660   -6.5830 O         1 <0>         0.0000
  13614 WAT       -36.6820  -71.1660   -6.3330 O         1 <0>         0.0000
  13615 WAT       -36.6820  -71.1660   -6.0830 O         1 <0>         0.0000
  13616 WAT       -36.6820  -71.1660   -5.8330 O         1 <0>         0.0000
  13617 WAT       -36.6820  -71.1660   -5.5830 O         1 <0>         0.0000
  13618 WAT       -36.6820  -71.1660   -5.3330 O         1 <0>         0.0000
  13619 WAT       -36.6820  -71.1660   -5.0830 O         1 <0>         0.0000
  13620 WAT       -36.6820  -71.1660   -4.8330 O         1 <0>         0.0000
  13621 WAT       -36.6820  -71.1660   -4.5830 O         1 <0>         0.0000
  13622 WAT       -36.6820  -71.1660   -4.3330 O         1 <0>         0.0000
  13623 WAT       -36.6820  -71.1660   -4.0830 O         1 <0>         0.0000
  13624 WAT       -36.6820  -71.1660   -3.8330 O         1 <0>         0.0000
  13625 WAT       -36.6820  -71.1660   -3.5830 O         1 <0>         0.0000
  13626 WAT       -36.6820  -71.1660   -3.3330 O         1 <0>         0.0000
  13627 WAT       -36.6820  -71.1660   -3.0830 O         1 <0>         0.0000
  13628 WAT       -36.6820  -71.1660   -2.8330 O         1 <0>         0.0000
  13629 WAT       -36.6820  -71.1660   -2.5830 O         1 <0>         0.0000
  13630 WAT       -36.6820  -71.1660   -2.3330 O         1 <0>         0.0000
  13631 WAT       -36.6820  -71.1660   -2.0830 O         1 <0>         0.0000
  13632 WAT       -36.6820  -71.1660   -1.8330 O         1 <0>         0.0000
  13633 WAT       -36.6820  -71.1660   -1.5830 O         1 <0>         0.0000
  13634 WAT       -36.6820  -71.1660   -1.3330 O         1 <0>         0.0000
  13635 WAT       -36.6820  -71.1660   -1.0830 O         1 <0>         0.0000
  13636 WAT       -36.6820  -71.1660   -0.8330 O         1 <0>         0.0000
  13637 WAT       -36.6820  -71.1660   -0.5830 O         1 <0>         0.0000
  13638 WAT       -36.6820  -71.1660   -0.3330 O         1 <0>         0.0000
  13639 WAT       -36.6820  -71.1660   -0.0830 O         1 <0>         0.0000
  13640 WAT       -36.6820  -70.9160   -9.8330 O         1 <0>         0.0000
  13641 WAT       -36.6820  -70.9160   -9.5830 O         1 <0>         0.0000
  13642 WAT       -36.6820  -70.9160   -9.3330 O         1 <0>         0.0000
  13643 WAT       -36.6820  -70.9160   -9.0830 O         1 <0>         0.0000
  13644 WAT       -36.6820  -70.9160   -8.8330 O         1 <0>         0.0000
  13645 WAT       -36.6820  -70.9160   -8.5830 O         1 <0>         0.0000
  13646 WAT       -36.6820  -70.9160   -8.3330 O         1 <0>         0.0000
  13647 WAT       -36.6820  -70.9160   -8.0830 O         1 <0>         0.0000
  13648 WAT       -36.6820  -70.9160   -7.8330 O         1 <0>         0.0000
  13649 WAT       -36.6820  -70.9160   -7.5830 O         1 <0>         0.0000
  13650 WAT       -36.6820  -70.9160   -7.3330 O         1 <0>         0.0000
  13651 WAT       -36.6820  -70.9160   -7.0830 O         1 <0>         0.0000
  13652 WAT       -36.6820  -70.9160   -6.8330 O         1 <0>         0.0000
  13653 WAT       -36.6820  -70.9160   -6.5830 O         1 <0>         0.0000
  13654 WAT       -36.6820  -70.9160   -6.3330 O         1 <0>         0.0000
  13655 WAT       -36.6820  -70.9160   -6.0830 O         1 <0>         0.0000
  13656 WAT       -36.6820  -70.9160   -5.8330 O         1 <0>         0.0000
  13657 WAT       -36.6820  -70.9160   -5.5830 O         1 <0>         0.0000
  13658 WAT       -36.6820  -70.9160   -5.3330 O         1 <0>         0.0000
  13659 WAT       -36.6820  -70.9160   -5.0830 O         1 <0>         0.0000
  13660 WAT       -36.6820  -70.9160   -4.8330 O         1 <0>         0.0000
  13661 WAT       -36.6820  -70.9160   -4.5830 O         1 <0>         0.0000
  13662 WAT       -36.6820  -70.9160   -4.3330 O         1 <0>         0.0000
  13663 WAT       -36.6820  -70.9160   -4.0830 O         1 <0>         0.0000
  13664 WAT       -36.6820  -70.9160   -3.8330 O         1 <0>         0.0000
  13665 WAT       -36.6820  -70.9160   -3.5830 O         1 <0>         0.0000
  13666 WAT       -36.6820  -70.9160   -3.3330 O         1 <0>         0.0000
  13667 WAT       -36.6820  -70.9160   -3.0830 O         1 <0>         0.0000
  13668 WAT       -36.6820  -70.9160   -2.8330 O         1 <0>         0.0000
  13669 WAT       -36.6820  -70.9160   -2.5830 O         1 <0>         0.0000
  13670 WAT       -36.6820  -70.9160   -2.3330 O         1 <0>         0.0000
  13671 WAT       -36.6820  -70.9160   -2.0830 O         1 <0>         0.0000
  13672 WAT       -36.6820  -70.9160   -1.8330 O         1 <0>         0.0000
  13673 WAT       -36.6820  -70.9160   -1.5830 O         1 <0>         0.0000
  13674 WAT       -36.6820  -70.9160   -1.3330 O         1 <0>         0.0000
  13675 WAT       -36.6820  -70.9160   -1.0830 O         1 <0>         0.0000
  13676 WAT       -36.6820  -70.9160   -0.8330 O         1 <0>         0.0000
  13677 WAT       -36.6820  -70.9160   -0.5830 O         1 <0>         0.0000
  13678 WAT       -36.6820  -70.9160   -0.3330 O         1 <0>         0.0000
  13679 WAT       -36.6820  -70.9160   -0.0830 O         1 <0>         0.0000
  13680 WAT       -36.6820  -70.6660   -9.8330 O         1 <0>         0.0000
  13681 WAT       -36.6820  -70.6660   -9.5830 O         1 <0>         0.0000
  13682 WAT       -36.6820  -70.6660   -9.3330 O         1 <0>         0.0000
  13683 WAT       -36.6820  -70.6660   -9.0830 O         1 <0>         0.0000
  13684 WAT       -36.6820  -70.6660   -8.8330 O         1 <0>         0.0000
  13685 WAT       -36.6820  -70.6660   -8.5830 O         1 <0>         0.0000
  13686 WAT       -36.6820  -70.6660   -8.3330 O         1 <0>         0.0000
  13687 WAT       -36.6820  -70.6660   -8.0830 O         1 <0>         0.0000
  13688 WAT       -36.6820  -70.6660   -7.8330 O         1 <0>         0.0000
  13689 WAT       -36.6820  -70.6660   -7.5830 O         1 <0>         0.0000
  13690 WAT       -36.6820  -70.6660   -7.3330 O         1 <0>         0.0000
  13691 WAT       -36.6820  -70.6660   -7.0830 O         1 <0>         0.0000
  13692 WAT       -36.6820  -70.6660   -6.8330 O         1 <0>         0.0000
  13693 WAT       -36.6820  -70.6660   -6.5830 O         1 <0>         0.0000
  13694 WAT       -36.6820  -70.6660   -6.3330 O         1 <0>         0.0000
  13695 WAT       -36.6820  -70.6660   -6.0830 O         1 <0>         0.0000
  13696 WAT       -36.6820  -70.6660   -5.8330 O         1 <0>         0.0000
  13697 WAT       -36.6820  -70.6660   -5.5830 O         1 <0>         0.0000
  13698 WAT       -36.6820  -70.6660   -5.3330 O         1 <0>         0.0000
  13699 WAT       -36.6820  -70.6660   -5.0830 O         1 <0>         0.0000
  13700 WAT       -36.6820  -70.6660   -4.8330 O         1 <0>         0.0000
  13701 WAT       -36.6820  -70.6660   -4.5830 O         1 <0>         0.0000
  13702 WAT       -36.6820  -70.6660   -4.3330 O         1 <0>         0.0000
  13703 WAT       -36.6820  -70.6660   -4.0830 O         1 <0>         0.0000
  13704 WAT       -36.6820  -70.6660   -3.8330 O         1 <0>         0.0000
  13705 WAT       -36.6820  -70.6660   -3.5830 O         1 <0>         0.0000
  13706 WAT       -36.6820  -70.6660   -3.3330 O         1 <0>         0.0000
  13707 WAT       -36.6820  -70.6660   -3.0830 O         1 <0>         0.0000
  13708 WAT       -36.6820  -70.6660   -2.8330 O         1 <0>         0.0000
  13709 WAT       -36.6820  -70.6660   -2.5830 O         1 <0>         0.0000
  13710 WAT       -36.6820  -70.6660   -2.3330 O         1 <0>         0.0000
  13711 WAT       -36.6820  -70.6660   -2.0830 O         1 <0>         0.0000
  13712 WAT       -36.6820  -70.6660   -1.8330 O         1 <0>         0.0000
  13713 WAT       -36.6820  -70.6660   -1.5830 O         1 <0>         0.0000
  13714 WAT       -36.6820  -70.6660   -1.3330 O         1 <0>         0.0000
  13715 WAT       -36.6820  -70.6660   -1.0830 O         1 <0>         0.0000
  13716 WAT       -36.6820  -70.6660   -0.8330 O         1 <0>         0.0000
  13717 WAT       -36.6820  -70.6660   -0.5830 O         1 <0>         0.0000
  13718 WAT       -36.6820  -70.6660   -0.3330 O         1 <0>         0.0000
  13719 WAT       -36.6820  -70.6660   -0.0830 O         1 <0>         0.0000
  13720 WAT       -36.6820  -70.4160   -9.8330 O         1 <0>         0.0000
  13721 WAT       -36.6820  -70.4160   -9.5830 O         1 <0>         0.0000
  13722 WAT       -36.6820  -70.4160   -9.3330 O         1 <0>         0.0000
  13723 WAT       -36.6820  -70.4160   -9.0830 O         1 <0>         0.0000
  13724 WAT       -36.6820  -70.4160   -8.8330 O         1 <0>         0.0000
  13725 WAT       -36.6820  -70.4160   -8.5830 O         1 <0>         0.0000
  13726 WAT       -36.6820  -70.4160   -8.3330 O         1 <0>         0.0000
  13727 WAT       -36.6820  -70.4160   -8.0830 O         1 <0>         0.0000
  13728 WAT       -36.6820  -70.4160   -7.8330 O         1 <0>         0.0000
  13729 WAT       -36.6820  -70.4160   -7.5830 O         1 <0>         0.0000
  13730 WAT       -36.6820  -70.4160   -7.3330 O         1 <0>         0.0000
  13731 WAT       -36.6820  -70.4160   -7.0830 O         1 <0>         0.0000
  13732 WAT       -36.6820  -70.4160   -6.8330 O         1 <0>         0.0000
  13733 WAT       -36.6820  -70.4160   -6.5830 O         1 <0>         0.0000
  13734 WAT       -36.6820  -70.4160   -6.3330 O         1 <0>         0.0000
  13735 WAT       -36.6820  -70.4160   -6.0830 O         1 <0>         0.0000
  13736 WAT       -36.6820  -70.4160   -5.8330 O         1 <0>         0.0000
  13737 WAT       -36.6820  -70.4160   -5.5830 O         1 <0>         0.0000
  13738 WAT       -36.6820  -70.4160   -5.3330 O         1 <0>         0.0000
  13739 WAT       -36.6820  -70.4160   -5.0830 O         1 <0>         0.0000
  13740 WAT       -36.6820  -70.4160   -4.8330 O         1 <0>         0.0000
  13741 WAT       -36.6820  -70.4160   -4.5830 O         1 <0>         0.0000
  13742 WAT       -36.6820  -70.4160   -4.3330 O         1 <0>         0.0000
  13743 WAT       -36.6820  -70.4160   -4.0830 O         1 <0>         0.0000
  13744 WAT       -36.6820  -70.4160   -3.8330 O         1 <0>         0.0000
  13745 WAT       -36.6820  -70.4160   -3.5830 O         1 <0>         0.0000
  13746 WAT       -36.6820  -70.4160   -3.3330 O         1 <0>         0.0000
  13747 WAT       -36.6820  -70.4160   -3.0830 O         1 <0>         0.0000
  13748 WAT       -36.6820  -70.4160   -2.8330 O         1 <0>         0.0000
  13749 WAT       -36.6820  -70.4160   -2.5830 O         1 <0>         0.0000
  13750 WAT       -36.6820  -70.4160   -2.3330 O         1 <0>         0.0000
  13751 WAT       -36.6820  -70.4160   -2.0830 O         1 <0>         0.0000
  13752 WAT       -36.6820  -70.4160   -1.8330 O         1 <0>         0.0000
  13753 WAT       -36.6820  -70.4160   -1.5830 O         1 <0>         0.0000
  13754 WAT       -36.6820  -70.4160   -1.3330 O         1 <0>         0.0000
  13755 WAT       -36.6820  -70.4160   -1.0830 O         1 <0>         0.0000
  13756 WAT       -36.6820  -70.4160   -0.8330 O         1 <0>         0.0000
  13757 WAT       -36.6820  -70.4160   -0.5830 O         1 <0>         0.0000
  13758 WAT       -36.6820  -70.4160   -0.3330 O         1 <0>         0.0000
  13759 WAT       -36.6820  -70.4160   -0.0830 O         1 <0>         0.0000
  13760 WAT       -36.6820  -70.1660   -9.8330 O         1 <0>         0.0000
  13761 WAT       -36.6820  -70.1660   -9.5830 O         1 <0>         0.0000
  13762 WAT       -36.6820  -70.1660   -9.3330 O         1 <0>         0.0000
  13763 WAT       -36.6820  -70.1660   -9.0830 O         1 <0>         0.0000
  13764 WAT       -36.6820  -70.1660   -8.8330 O         1 <0>         0.0000
  13765 WAT       -36.6820  -70.1660   -8.5830 O         1 <0>         0.0000
  13766 WAT       -36.6820  -70.1660   -8.3330 O         1 <0>         0.0000
  13767 WAT       -36.6820  -70.1660   -8.0830 O         1 <0>         0.0000
  13768 WAT       -36.6820  -70.1660   -7.8330 O         1 <0>         0.0000
  13769 WAT       -36.6820  -70.1660   -7.5830 O         1 <0>         0.0000
  13770 WAT       -36.6820  -70.1660   -7.3330 O         1 <0>         0.0000
  13771 WAT       -36.6820  -70.1660   -7.0830 O         1 <0>         0.0000
  13772 WAT       -36.6820  -70.1660   -6.8330 O         1 <0>         0.0000
  13773 WAT       -36.6820  -70.1660   -6.5830 O         1 <0>         0.0000
  13774 WAT       -36.6820  -70.1660   -6.3330 O         1 <0>         0.0000
  13775 WAT       -36.6820  -70.1660   -6.0830 O         1 <0>         0.0000
  13776 WAT       -36.6820  -70.1660   -5.8330 O         1 <0>         0.0000
  13777 WAT       -36.6820  -70.1660   -5.5830 O         1 <0>         0.0000
  13778 WAT       -36.6820  -70.1660   -5.3330 O         1 <0>         0.0000
  13779 WAT       -36.6820  -70.1660   -5.0830 O         1 <0>         0.0000
  13780 WAT       -36.6820  -70.1660   -4.8330 O         1 <0>         0.0000
  13781 WAT       -36.6820  -70.1660   -4.5830 O         1 <0>         0.0000
  13782 WAT       -36.6820  -70.1660   -4.3330 O         1 <0>         0.0000
  13783 WAT       -36.6820  -70.1660   -4.0830 O         1 <0>         0.0000
  13784 WAT       -36.6820  -70.1660   -3.8330 O         1 <0>         0.0000
  13785 WAT       -36.6820  -70.1660   -3.5830 O         1 <0>         0.0000
  13786 WAT       -36.6820  -70.1660   -3.3330 O         1 <0>         0.0000
  13787 WAT       -36.6820  -70.1660   -3.0830 O         1 <0>         0.0000
  13788 WAT       -36.6820  -70.1660   -2.8330 O         1 <0>         0.0000
  13789 WAT       -36.6820  -70.1660   -2.5830 O         1 <0>         0.0000
  13790 WAT       -36.6820  -70.1660   -2.3330 O         1 <0>         0.0000
  13791 WAT       -36.6820  -70.1660   -2.0830 O         1 <0>         0.0000
  13792 WAT       -36.6820  -70.1660   -1.8330 O         1 <0>         0.0000
  13793 WAT       -36.6820  -70.1660   -1.5830 O         1 <0>         0.0000
  13794 WAT       -36.6820  -70.1660   -1.3330 O         1 <0>         0.0000
  13795 WAT       -36.6820  -70.1660   -1.0830 O         1 <0>         0.0000
  13796 WAT       -36.6820  -70.1660   -0.8330 O         1 <0>         0.0000
  13797 WAT       -36.6820  -70.1660   -0.5830 O         1 <0>         0.0000
  13798 WAT       -36.6820  -70.1660   -0.3330 O         1 <0>         0.0000
  13799 WAT       -36.6820  -70.1660   -0.0830 O         1 <0>         0.0000
  13800 WAT       -36.6820  -69.9160   -9.8330 O         1 <0>         0.0000
  13801 WAT       -36.6820  -69.9160   -9.5830 O         1 <0>         0.0000
  13802 WAT       -36.6820  -69.9160   -9.3330 O         1 <0>         0.0000
  13803 WAT       -36.6820  -69.9160   -9.0830 O         1 <0>         0.0000
  13804 WAT       -36.6820  -69.9160   -8.8330 O         1 <0>         0.0000
  13805 WAT       -36.6820  -69.9160   -8.5830 O         1 <0>         0.0000
  13806 WAT       -36.6820  -69.9160   -8.3330 O         1 <0>         0.0000
  13807 WAT       -36.6820  -69.9160   -8.0830 O         1 <0>         0.0000
  13808 WAT       -36.6820  -69.9160   -7.8330 O         1 <0>         0.0000
  13809 WAT       -36.6820  -69.9160   -7.5830 O         1 <0>         0.0000
  13810 WAT       -36.6820  -69.9160   -7.3330 O         1 <0>         0.0000
  13811 WAT       -36.6820  -69.9160   -7.0830 O         1 <0>         0.0000
  13812 WAT       -36.6820  -69.9160   -6.8330 O         1 <0>         0.0000
  13813 WAT       -36.6820  -69.9160   -6.5830 O         1 <0>         0.0000
  13814 WAT       -36.6820  -69.9160   -6.3330 O         1 <0>         0.0000
  13815 WAT       -36.6820  -69.9160   -6.0830 O         1 <0>         0.0000
  13816 WAT       -36.6820  -69.9160   -5.8330 O         1 <0>         0.0000
  13817 WAT       -36.6820  -69.9160   -5.5830 O         1 <0>         0.0000
  13818 WAT       -36.6820  -69.9160   -5.3330 O         1 <0>         0.0000
  13819 WAT       -36.6820  -69.9160   -5.0830 O         1 <0>         0.0000
  13820 WAT       -36.6820  -69.9160   -4.8330 O         1 <0>         0.0000
  13821 WAT       -36.6820  -69.9160   -4.5830 O         1 <0>         0.0000
  13822 WAT       -36.6820  -69.9160   -4.3330 O         1 <0>         0.0000
  13823 WAT       -36.6820  -69.9160   -4.0830 O         1 <0>         0.0000
  13824 WAT       -36.6820  -69.9160   -3.8330 O         1 <0>         0.0000
  13825 WAT       -36.6820  -69.9160   -3.5830 O         1 <0>         0.0000
  13826 WAT       -36.6820  -69.9160   -3.3330 O         1 <0>         0.0000
  13827 WAT       -36.6820  -69.9160   -3.0830 O         1 <0>         0.0000
  13828 WAT       -36.6820  -69.9160   -2.8330 O         1 <0>         0.0000
  13829 WAT       -36.6820  -69.9160   -2.5830 O         1 <0>         0.0000
  13830 WAT       -36.6820  -69.9160   -2.3330 O         1 <0>         0.0000
  13831 WAT       -36.6820  -69.9160   -2.0830 O         1 <0>         0.0000
  13832 WAT       -36.6820  -69.9160   -1.8330 O         1 <0>         0.0000
  13833 WAT       -36.6820  -69.9160   -1.5830 O         1 <0>         0.0000
  13834 WAT       -36.6820  -69.9160   -1.3330 O         1 <0>         0.0000
  13835 WAT       -36.6820  -69.9160   -1.0830 O         1 <0>         0.0000
  13836 WAT       -36.6820  -69.9160   -0.8330 O         1 <0>         0.0000
  13837 WAT       -36.6820  -69.9160   -0.5830 O         1 <0>         0.0000
  13838 WAT       -36.6820  -69.9160   -0.3330 O         1 <0>         0.0000
  13839 WAT       -36.6820  -69.9160   -0.0830 O         1 <0>         0.0000
  13840 WAT       -36.6820  -69.6660   -9.8330 O         1 <0>         0.0000
  13841 WAT       -36.6820  -69.6660   -9.5830 O         1 <0>         0.0000
  13842 WAT       -36.6820  -69.6660   -9.3330 O         1 <0>         0.0000
  13843 WAT       -36.6820  -69.6660   -9.0830 O         1 <0>         0.0000
  13844 WAT       -36.6820  -69.6660   -8.8330 O         1 <0>         0.0000
  13845 WAT       -36.6820  -69.6660   -8.5830 O         1 <0>         0.0000
  13846 WAT       -36.6820  -69.6660   -8.3330 O         1 <0>         0.0000
  13847 WAT       -36.6820  -69.6660   -8.0830 O         1 <0>         0.0000
  13848 WAT       -36.6820  -69.6660   -7.8330 O         1 <0>         0.0000
  13849 WAT       -36.6820  -69.6660   -7.5830 O         1 <0>         0.0000
  13850 WAT       -36.6820  -69.6660   -7.3330 O         1 <0>         0.0000
  13851 WAT       -36.6820  -69.6660   -7.0830 O         1 <0>         0.0000
  13852 WAT       -36.6820  -69.6660   -6.8330 O         1 <0>         0.0000
  13853 WAT       -36.6820  -69.6660   -6.5830 O         1 <0>         0.0000
  13854 WAT       -36.6820  -69.6660   -6.3330 O         1 <0>         0.0000
  13855 WAT       -36.6820  -69.6660   -6.0830 O         1 <0>         0.0000
  13856 WAT       -36.6820  -69.6660   -5.8330 O         1 <0>         0.0000
  13857 WAT       -36.6820  -69.6660   -5.5830 O         1 <0>         0.0000
  13858 WAT       -36.6820  -69.6660   -5.3330 O         1 <0>         0.0000
  13859 WAT       -36.6820  -69.6660   -5.0830 O         1 <0>         0.0000
  13860 WAT       -36.6820  -69.6660   -4.8330 O         1 <0>         0.0000
  13861 WAT       -36.6820  -69.6660   -4.5830 O         1 <0>         0.0000
  13862 WAT       -36.6820  -69.6660   -4.3330 O         1 <0>         0.0000
  13863 WAT       -36.6820  -69.6660   -4.0830 O         1 <0>         0.0000
  13864 WAT       -36.6820  -69.6660   -3.8330 O         1 <0>         0.0000
  13865 WAT       -36.6820  -69.6660   -3.5830 O         1 <0>         0.0000
  13866 WAT       -36.6820  -69.6660   -3.3330 O         1 <0>         0.0000
  13867 WAT       -36.6820  -69.6660   -3.0830 O         1 <0>         0.0000
  13868 WAT       -36.6820  -69.6660   -2.8330 O         1 <0>         0.0000
  13869 WAT       -36.6820  -69.6660   -2.5830 O         1 <0>         0.0000
  13870 WAT       -36.6820  -69.6660   -2.3330 O         1 <0>         0.0000
  13871 WAT       -36.6820  -69.6660   -2.0830 O         1 <0>         0.0000
  13872 WAT       -36.6820  -69.6660   -1.8330 O         1 <0>         0.0000
  13873 WAT       -36.6820  -69.6660   -1.5830 O         1 <0>         0.0000
  13874 WAT       -36.6820  -69.6660   -1.3330 O         1 <0>         0.0000
  13875 WAT       -36.6820  -69.6660   -1.0830 O         1 <0>         0.0000
  13876 WAT       -36.6820  -69.6660   -0.8330 O         1 <0>         0.0000
  13877 WAT       -36.6820  -69.6660   -0.5830 O         1 <0>         0.0000
  13878 WAT       -36.6820  -69.6660   -0.3330 O         1 <0>         0.0000
  13879 WAT       -36.6820  -69.6660   -0.0830 O         1 <0>         0.0000
  13880 WAT       -36.6820  -69.4160   -9.8330 O         1 <0>         0.0000
  13881 WAT       -36.6820  -69.4160   -9.5830 O         1 <0>         0.0000
  13882 WAT       -36.6820  -69.4160   -9.3330 O         1 <0>         0.0000
  13883 WAT       -36.6820  -69.4160   -9.0830 O         1 <0>         0.0000
  13884 WAT       -36.6820  -69.4160   -8.8330 O         1 <0>         0.0000
  13885 WAT       -36.6820  -69.4160   -8.5830 O         1 <0>         0.0000
  13886 WAT       -36.6820  -69.4160   -8.3330 O         1 <0>         0.0000
  13887 WAT       -36.6820  -69.4160   -8.0830 O         1 <0>         0.0000
  13888 WAT       -36.6820  -69.4160   -7.8330 O         1 <0>         0.0000
  13889 WAT       -36.6820  -69.4160   -7.5830 O         1 <0>         0.0000
  13890 WAT       -36.6820  -69.4160   -7.3330 O         1 <0>         0.0000
  13891 WAT       -36.6820  -69.4160   -7.0830 O         1 <0>         0.0000
  13892 WAT       -36.6820  -69.4160   -6.8330 O         1 <0>         0.0000
  13893 WAT       -36.6820  -69.4160   -6.5830 O         1 <0>         0.0000
  13894 WAT       -36.6820  -69.4160   -6.3330 O         1 <0>         0.0000
  13895 WAT       -36.6820  -69.4160   -6.0830 O         1 <0>         0.0000
  13896 WAT       -36.6820  -69.4160   -5.8330 O         1 <0>         0.0000
  13897 WAT       -36.6820  -69.4160   -5.5830 O         1 <0>         0.0000
  13898 WAT       -36.6820  -69.4160   -5.3330 O         1 <0>         0.0000
  13899 WAT       -36.6820  -69.4160   -5.0830 O         1 <0>         0.0000
  13900 WAT       -36.6820  -69.4160   -4.8330 O         1 <0>         0.0000
  13901 WAT       -36.6820  -69.4160   -4.5830 O         1 <0>         0.0000
  13902 WAT       -36.6820  -69.4160   -4.3330 O         1 <0>         0.0000
  13903 WAT       -36.6820  -69.4160   -4.0830 O         1 <0>         0.0000
  13904 WAT       -36.6820  -69.4160   -3.8330 O         1 <0>         0.0000
  13905 WAT       -36.6820  -69.4160   -3.5830 O         1 <0>         0.0000
  13906 WAT       -36.6820  -69.4160   -3.3330 O         1 <0>         0.0000
  13907 WAT       -36.6820  -69.4160   -3.0830 O         1 <0>         0.0000
  13908 WAT       -36.6820  -69.4160   -2.8330 O         1 <0>         0.0000
  13909 WAT       -36.6820  -69.4160   -2.5830 O         1 <0>         0.0000
  13910 WAT       -36.6820  -69.4160   -2.3330 O         1 <0>         0.0000
  13911 WAT       -36.6820  -69.4160   -2.0830 O         1 <0>         0.0000
  13912 WAT       -36.6820  -69.4160   -1.8330 O         1 <0>         0.0000
  13913 WAT       -36.6820  -69.4160   -1.5830 O         1 <0>         0.0000
  13914 WAT       -36.6820  -69.4160   -1.3330 O         1 <0>         0.0000
  13915 WAT       -36.6820  -69.4160   -1.0830 O         1 <0>         0.0000
  13916 WAT       -36.6820  -69.4160   -0.8330 O         1 <0>         0.0000
  13917 WAT       -36.6820  -69.4160   -0.5830 O         1 <0>         0.0000
  13918 WAT       -36.6820  -69.4160   -0.3330 O         1 <0>         0.0000
  13919 WAT       -36.6820  -69.4160   -0.0830 O         1 <0>         0.0000
  13920 WAT       -36.6820  -69.1660   -9.8330 O         1 <0>         0.0000
  13921 WAT       -36.6820  -69.1660   -9.5830 O         1 <0>         0.0000
  13922 WAT       -36.6820  -69.1660   -9.3330 O         1 <0>         0.0000
  13923 WAT       -36.6820  -69.1660   -9.0830 O         1 <0>         0.0000
  13924 WAT       -36.6820  -69.1660   -8.8330 O         1 <0>         0.0000
  13925 WAT       -36.6820  -69.1660   -8.5830 O         1 <0>         0.0000
  13926 WAT       -36.6820  -69.1660   -8.3330 O         1 <0>         0.0000
  13927 WAT       -36.6820  -69.1660   -8.0830 O         1 <0>         0.0000
  13928 WAT       -36.6820  -69.1660   -7.8330 O         1 <0>         0.0000
  13929 WAT       -36.6820  -69.1660   -7.5830 O         1 <0>         0.0000
  13930 WAT       -36.6820  -69.1660   -7.3330 O         1 <0>         0.0000
  13931 WAT       -36.6820  -69.1660   -7.0830 O         1 <0>         0.0000
  13932 WAT       -36.6820  -69.1660   -6.8330 O         1 <0>         0.0000
  13933 WAT       -36.6820  -69.1660   -6.5830 O         1 <0>         0.0000
  13934 WAT       -36.6820  -69.1660   -6.3330 O         1 <0>         0.0000
  13935 WAT       -36.6820  -69.1660   -6.0830 O         1 <0>         0.0000
  13936 WAT       -36.6820  -69.1660   -5.8330 O         1 <0>         0.0000
  13937 WAT       -36.6820  -69.1660   -5.5830 O         1 <0>         0.0000
  13938 WAT       -36.6820  -69.1660   -5.3330 O         1 <0>         0.0000
  13939 WAT       -36.6820  -69.1660   -5.0830 O         1 <0>         0.0000
  13940 WAT       -36.6820  -69.1660   -4.8330 O         1 <0>         0.0000
  13941 WAT       -36.6820  -69.1660   -4.5830 O         1 <0>         0.0000
  13942 WAT       -36.6820  -69.1660   -4.3330 O         1 <0>         0.0000
  13943 WAT       -36.6820  -69.1660   -4.0830 O         1 <0>         0.0000
  13944 WAT       -36.6820  -69.1660   -3.8330 O         1 <0>         0.0000
  13945 WAT       -36.6820  -69.1660   -3.5830 O         1 <0>         0.0000
  13946 WAT       -36.6820  -69.1660   -3.3330 O         1 <0>         0.0000
  13947 WAT       -36.6820  -69.1660   -3.0830 O         1 <0>         0.0000
  13948 WAT       -36.6820  -69.1660   -2.8330 O         1 <0>         0.0000
  13949 WAT       -36.6820  -69.1660   -2.5830 O         1 <0>         0.0000
  13950 WAT       -36.6820  -69.1660   -2.3330 O         1 <0>         0.0000
  13951 WAT       -36.6820  -69.1660   -2.0830 O         1 <0>         0.0000
  13952 WAT       -36.6820  -69.1660   -1.8330 O         1 <0>         0.0000
  13953 WAT       -36.6820  -69.1660   -1.5830 O         1 <0>         0.0000
  13954 WAT       -36.6820  -69.1660   -1.3330 O         1 <0>         0.0000
  13955 WAT       -36.6820  -69.1660   -1.0830 O         1 <0>         0.0000
  13956 WAT       -36.6820  -69.1660   -0.8330 O         1 <0>         0.0000
  13957 WAT       -36.6820  -69.1660   -0.5830 O         1 <0>         0.0000
  13958 WAT       -36.6820  -69.1660   -0.3330 O         1 <0>         0.0000
  13959 WAT       -36.6820  -69.1660   -0.0830 O         1 <0>         0.0000
  13960 WAT       -36.6820  -68.9160   -9.8330 O         1 <0>         0.0000
  13961 WAT       -36.6820  -68.9160   -9.5830 O         1 <0>         0.0000
  13962 WAT       -36.6820  -68.9160   -9.3330 O         1 <0>         0.0000
  13963 WAT       -36.6820  -68.9160   -9.0830 O         1 <0>         0.0000
  13964 WAT       -36.6820  -68.9160   -8.8330 O         1 <0>         0.0000
  13965 WAT       -36.6820  -68.9160   -8.5830 O         1 <0>         0.0000
  13966 WAT       -36.6820  -68.9160   -8.3330 O         1 <0>         0.0000
  13967 WAT       -36.6820  -68.9160   -8.0830 O         1 <0>         0.0000
  13968 WAT       -36.6820  -68.9160   -7.8330 O         1 <0>         0.0000
  13969 WAT       -36.6820  -68.9160   -7.5830 O         1 <0>         0.0000
  13970 WAT       -36.6820  -68.9160   -7.3330 O         1 <0>         0.0000
  13971 WAT       -36.6820  -68.9160   -7.0830 O         1 <0>         0.0000
  13972 WAT       -36.6820  -68.9160   -6.8330 O         1 <0>         0.0000
  13973 WAT       -36.6820  -68.9160   -6.5830 O         1 <0>         0.0000
  13974 WAT       -36.6820  -68.9160   -6.3330 O         1 <0>         0.0000
  13975 WAT       -36.6820  -68.9160   -6.0830 O         1 <0>         0.0000
  13976 WAT       -36.6820  -68.9160   -5.8330 O         1 <0>         0.0000
  13977 WAT       -36.6820  -68.9160   -5.5830 O         1 <0>         0.0000
  13978 WAT       -36.6820  -68.9160   -5.3330 O         1 <0>         0.0000
  13979 WAT       -36.6820  -68.9160   -5.0830 O         1 <0>         0.0000
  13980 WAT       -36.6820  -68.9160   -4.8330 O         1 <0>         0.0000
  13981 WAT       -36.6820  -68.9160   -4.5830 O         1 <0>         0.0000
  13982 WAT       -36.6820  -68.9160   -4.3330 O         1 <0>         0.0000
  13983 WAT       -36.6820  -68.9160   -4.0830 O         1 <0>         0.0000
  13984 WAT       -36.6820  -68.9160   -3.8330 O         1 <0>         0.0000
  13985 WAT       -36.6820  -68.9160   -3.5830 O         1 <0>         0.0000
  13986 WAT       -36.6820  -68.9160   -3.3330 O         1 <0>         0.0000
  13987 WAT       -36.6820  -68.9160   -3.0830 O         1 <0>         0.0000
  13988 WAT       -36.6820  -68.9160   -2.8330 O         1 <0>         0.0000
  13989 WAT       -36.6820  -68.9160   -2.5830 O         1 <0>         0.0000
  13990 WAT       -36.6820  -68.9160   -2.3330 O         1 <0>         0.0000
  13991 WAT       -36.6820  -68.9160   -2.0830 O         1 <0>         0.0000
  13992 WAT       -36.6820  -68.9160   -1.8330 O         1 <0>         0.0000
  13993 WAT       -36.6820  -68.9160   -1.5830 O         1 <0>         0.0000
  13994 WAT       -36.6820  -68.9160   -1.3330 O         1 <0>         0.0000
  13995 WAT       -36.6820  -68.9160   -1.0830 O         1 <0>         0.0000
  13996 WAT       -36.6820  -68.9160   -0.8330 O         1 <0>         0.0000
  13997 WAT       -36.6820  -68.9160   -0.5830 O         1 <0>         0.0000
  13998 WAT       -36.6820  -68.9160   -0.3330 O         1 <0>         0.0000
  13999 WAT       -36.6820  -68.9160   -0.0830 O         1 <0>         0.0000
  14000 WAT       -36.4320  -77.4160   -9.8330 O         1 <0>         0.0000
  14001 WAT       -36.4320  -77.4160   -9.5830 O         1 <0>         0.0000
  14002 WAT       -36.4320  -77.4160   -9.3330 O         1 <0>         0.0000
  14003 WAT       -36.4320  -77.4160   -9.0830 O         1 <0>         0.0000
  14004 WAT       -36.4320  -77.4160   -8.8330 O         1 <0>         0.0000
  14005 WAT       -36.4320  -77.4160   -8.5830 O         1 <0>         0.0000
  14006 WAT       -36.4320  -77.4160   -8.3330 O         1 <0>         0.0000
  14007 WAT       -36.4320  -77.4160   -8.0830 O         1 <0>         0.0000
  14008 WAT       -36.4320  -77.4160   -7.8330 O         1 <0>         0.0000
  14009 WAT       -36.4320  -77.4160   -7.5830 O         1 <0>         0.0000
  14010 WAT       -36.4320  -77.4160   -7.3330 O         1 <0>         0.0000
  14011 WAT       -36.4320  -77.4160   -7.0830 O         1 <0>         0.0000
  14012 WAT       -36.4320  -77.4160   -6.8330 O         1 <0>         0.0000
  14013 WAT       -36.4320  -77.4160   -6.5830 O         1 <0>         0.0000
  14014 WAT       -36.4320  -77.4160   -6.3330 O         1 <0>         0.0000
  14015 WAT       -36.4320  -77.4160   -6.0830 O         1 <0>         0.0000
  14016 WAT       -36.4320  -77.4160   -5.8330 O         1 <0>         0.0000
  14017 WAT       -36.4320  -77.4160   -5.5830 O         1 <0>         0.0000
  14018 WAT       -36.4320  -77.4160   -5.3330 O         1 <0>         0.0000
  14019 WAT       -36.4320  -77.4160   -5.0830 O         1 <0>         0.0000
  14020 WAT       -36.4320  -77.4160   -4.8330 O         1 <0>         0.0000
  14021 WAT       -36.4320  -77.4160   -4.5830 O         1 <0>         0.0000
  14022 WAT       -36.4320  -77.4160   -4.3330 O         1 <0>         0.0000
  14023 WAT       -36.4320  -77.4160   -4.0830 O         1 <0>         0.0000
  14024 WAT       -36.4320  -77.4160   -3.8330 O         1 <0>         0.0000
  14025 WAT       -36.4320  -77.4160   -3.5830 O         1 <0>         0.0000
  14026 WAT       -36.4320  -77.4160   -3.3330 O         1 <0>         0.0000
  14027 WAT       -36.4320  -77.4160   -3.0830 O         1 <0>         0.0000
  14028 WAT       -36.4320  -77.4160   -2.8330 O         1 <0>         0.0000
  14029 WAT       -36.4320  -77.4160   -2.5830 O         1 <0>         0.0000
  14030 WAT       -36.4320  -77.4160   -2.3330 O         1 <0>         0.0000
  14031 WAT       -36.4320  -77.4160   -2.0830 O         1 <0>         0.0000
  14032 WAT       -36.4320  -77.4160   -1.8330 O         1 <0>         0.0000
  14033 WAT       -36.4320  -77.4160   -1.5830 O         1 <0>         0.0000
  14034 WAT       -36.4320  -77.4160   -1.3330 O         1 <0>         0.0000
  14035 WAT       -36.4320  -77.4160   -1.0830 O         1 <0>         0.0000
  14036 WAT       -36.4320  -77.4160   -0.8330 O         1 <0>         0.0000
  14037 WAT       -36.4320  -77.4160   -0.5830 O         1 <0>         0.0000
  14038 WAT       -36.4320  -77.4160   -0.3330 O         1 <0>         0.0000
  14039 WAT       -36.4320  -77.4160   -0.0830 O         1 <0>         0.0000
  14040 WAT       -36.4320  -77.1660   -9.8330 O         1 <0>         0.0000
  14041 WAT       -36.4320  -77.1660   -9.5830 O         1 <0>         0.0000
  14042 WAT       -36.4320  -77.1660   -9.3330 O         1 <0>         0.0000
  14043 WAT       -36.4320  -77.1660   -9.0830 O         1 <0>         0.0000
  14044 WAT       -36.4320  -77.1660   -8.8330 O         1 <0>         0.0000
  14045 WAT       -36.4320  -77.1660   -8.5830 O         1 <0>         0.0000
  14046 WAT       -36.4320  -77.1660   -8.3330 O         1 <0>         0.0000
  14047 WAT       -36.4320  -77.1660   -8.0830 O         1 <0>         0.0000
  14048 WAT       -36.4320  -77.1660   -7.8330 O         1 <0>         0.0000
  14049 WAT       -36.4320  -77.1660   -7.5830 O         1 <0>         0.0000
  14050 WAT       -36.4320  -77.1660   -7.3330 O         1 <0>         0.0000
  14051 WAT       -36.4320  -77.1660   -7.0830 O         1 <0>         0.0000
  14052 WAT       -36.4320  -77.1660   -6.8330 O         1 <0>         0.0000
  14053 WAT       -36.4320  -77.1660   -6.5830 O         1 <0>         0.0000
  14054 WAT       -36.4320  -77.1660   -6.3330 O         1 <0>         0.0000
  14055 WAT       -36.4320  -77.1660   -6.0830 O         1 <0>         0.0000
  14056 WAT       -36.4320  -77.1660   -5.8330 O         1 <0>         0.0000
  14057 WAT       -36.4320  -77.1660   -5.5830 O         1 <0>         0.0000
  14058 WAT       -36.4320  -77.1660   -5.3330 O         1 <0>         0.0000
  14059 WAT       -36.4320  -77.1660   -5.0830 O         1 <0>         0.0000
  14060 WAT       -36.4320  -77.1660   -4.8330 O         1 <0>         0.0000
  14061 WAT       -36.4320  -77.1660   -4.5830 O         1 <0>         0.0000
  14062 WAT       -36.4320  -77.1660   -4.3330 O         1 <0>         0.0000
  14063 WAT       -36.4320  -77.1660   -4.0830 O         1 <0>         0.0000
  14064 WAT       -36.4320  -77.1660   -3.8330 O         1 <0>         0.0000
  14065 WAT       -36.4320  -77.1660   -3.5830 O         1 <0>         0.0000
  14066 WAT       -36.4320  -77.1660   -3.3330 O         1 <0>         0.0000
  14067 WAT       -36.4320  -77.1660   -3.0830 O         1 <0>         0.0000
  14068 WAT       -36.4320  -77.1660   -2.8330 O         1 <0>         0.0000
  14069 WAT       -36.4320  -77.1660   -2.5830 O         1 <0>         0.0000
  14070 WAT       -36.4320  -77.1660   -2.3330 O         1 <0>         0.0000
  14071 WAT       -36.4320  -77.1660   -2.0830 O         1 <0>         0.0000
  14072 WAT       -36.4320  -77.1660   -1.8330 O         1 <0>         0.0000
  14073 WAT       -36.4320  -77.1660   -1.5830 O         1 <0>         0.0000
  14074 WAT       -36.4320  -77.1660   -1.3330 O         1 <0>         0.0000
  14075 WAT       -36.4320  -77.1660   -1.0830 O         1 <0>         0.0000
  14076 WAT       -36.4320  -77.1660   -0.8330 O         1 <0>         0.0000
  14077 WAT       -36.4320  -77.1660   -0.5830 O         1 <0>         0.0000
  14078 WAT       -36.4320  -77.1660   -0.3330 O         1 <0>         0.0000
  14079 WAT       -36.4320  -77.1660   -0.0830 O         1 <0>         0.0000
  14080 WAT       -36.4320  -76.9160   -9.8330 O         1 <0>         0.0000
  14081 WAT       -36.4320  -76.9160   -9.5830 O         1 <0>         0.0000
  14082 WAT       -36.4320  -76.9160   -9.3330 O         1 <0>         0.0000
  14083 WAT       -36.4320  -76.9160   -9.0830 O         1 <0>         0.0000
  14084 WAT       -36.4320  -76.9160   -8.8330 O         1 <0>         0.0000
  14085 WAT       -36.4320  -76.9160   -8.5830 O         1 <0>         0.0000
  14086 WAT       -36.4320  -76.9160   -8.3330 O         1 <0>         0.0000
  14087 WAT       -36.4320  -76.9160   -8.0830 O         1 <0>         0.0000
  14088 WAT       -36.4320  -76.9160   -7.8330 O         1 <0>         0.0000
  14089 WAT       -36.4320  -76.9160   -7.5830 O         1 <0>         0.0000
  14090 WAT       -36.4320  -76.9160   -7.3330 O         1 <0>         0.0000
  14091 WAT       -36.4320  -76.9160   -7.0830 O         1 <0>         0.0000
  14092 WAT       -36.4320  -76.9160   -6.8330 O         1 <0>         0.0000
  14093 WAT       -36.4320  -76.9160   -6.5830 O         1 <0>         0.0000
  14094 WAT       -36.4320  -76.9160   -6.3330 O         1 <0>         0.0000
  14095 WAT       -36.4320  -76.9160   -6.0830 O         1 <0>         0.0000
  14096 WAT       -36.4320  -76.9160   -5.8330 O         1 <0>         0.0000
  14097 WAT       -36.4320  -76.9160   -5.5830 O         1 <0>         0.0000
  14098 WAT       -36.4320  -76.9160   -5.3330 O         1 <0>         0.0000
  14099 WAT       -36.4320  -76.9160   -5.0830 O         1 <0>         0.0000
  14100 WAT       -36.4320  -76.9160   -4.8330 O         1 <0>         0.0000
  14101 WAT       -36.4320  -76.9160   -4.5830 O         1 <0>         0.0000
  14102 WAT       -36.4320  -76.9160   -4.3330 O         1 <0>         0.0000
  14103 WAT       -36.4320  -76.9160   -4.0830 O         1 <0>         0.0000
  14104 WAT       -36.4320  -76.9160   -3.8330 O         1 <0>         0.0000
  14105 WAT       -36.4320  -76.9160   -3.5830 O         1 <0>         0.0000
  14106 WAT       -36.4320  -76.9160   -3.3330 O         1 <0>         0.0000
  14107 WAT       -36.4320  -76.9160   -3.0830 O         1 <0>         0.0000
  14108 WAT       -36.4320  -76.9160   -2.8330 O         1 <0>         0.0000
  14109 WAT       -36.4320  -76.9160   -2.5830 O         1 <0>         0.0000
  14110 WAT       -36.4320  -76.9160   -2.3330 O         1 <0>         0.0000
  14111 WAT       -36.4320  -76.9160   -2.0830 O         1 <0>         0.0000
  14112 WAT       -36.4320  -76.9160   -1.8330 O         1 <0>         0.0000
  14113 WAT       -36.4320  -76.9160   -1.5830 O         1 <0>         0.0000
  14114 WAT       -36.4320  -76.9160   -1.3330 O         1 <0>         0.0000
  14115 WAT       -36.4320  -76.9160   -1.0830 O         1 <0>         0.0000
  14116 WAT       -36.4320  -76.9160   -0.8330 O         1 <0>         0.0000
  14117 WAT       -36.4320  -76.9160   -0.5830 O         1 <0>         0.0000
  14118 WAT       -36.4320  -76.9160   -0.3330 O         1 <0>         0.0000
  14119 WAT       -36.4320  -76.9160   -0.0830 O         1 <0>         0.0000
  14120 WAT       -36.4320  -76.6660   -9.8330 O         1 <0>         0.0000
  14121 WAT       -36.4320  -76.6660   -9.5830 O         1 <0>         0.0000
  14122 WAT       -36.4320  -76.6660   -9.3330 O         1 <0>         0.0000
  14123 WAT       -36.4320  -76.6660   -9.0830 O         1 <0>         0.0000
  14124 WAT       -36.4320  -76.6660   -8.8330 O         1 <0>         0.0000
  14125 WAT       -36.4320  -76.6660   -8.5830 O         1 <0>         0.0000
  14126 WAT       -36.4320  -76.6660   -8.3330 O         1 <0>         0.0000
  14127 WAT       -36.4320  -76.6660   -8.0830 O         1 <0>         0.0000
  14128 WAT       -36.4320  -76.6660   -7.8330 O         1 <0>         0.0000
  14129 WAT       -36.4320  -76.6660   -7.5830 O         1 <0>         0.0000
  14130 WAT       -36.4320  -76.6660   -7.3330 O         1 <0>         0.0000
  14131 WAT       -36.4320  -76.6660   -7.0830 O         1 <0>         0.0000
  14132 WAT       -36.4320  -76.6660   -6.8330 O         1 <0>         0.0000
  14133 WAT       -36.4320  -76.6660   -6.5830 O         1 <0>         0.0000
  14134 WAT       -36.4320  -76.6660   -6.3330 O         1 <0>         0.0000
  14135 WAT       -36.4320  -76.6660   -6.0830 O         1 <0>         0.0000
  14136 WAT       -36.4320  -76.6660   -5.8330 O         1 <0>         0.0000
  14137 WAT       -36.4320  -76.6660   -5.5830 O         1 <0>         0.0000
  14138 WAT       -36.4320  -76.6660   -5.3330 O         1 <0>         0.0000
  14139 WAT       -36.4320  -76.6660   -5.0830 O         1 <0>         0.0000
  14140 WAT       -36.4320  -76.6660   -4.8330 O         1 <0>         0.0000
  14141 WAT       -36.4320  -76.6660   -4.5830 O         1 <0>         0.0000
  14142 WAT       -36.4320  -76.6660   -4.3330 O         1 <0>         0.0000
  14143 WAT       -36.4320  -76.6660   -4.0830 O         1 <0>         0.0000
  14144 WAT       -36.4320  -76.6660   -3.8330 O         1 <0>         0.0000
  14145 WAT       -36.4320  -76.6660   -3.5830 O         1 <0>         0.0000
  14146 WAT       -36.4320  -76.6660   -3.3330 O         1 <0>         0.0000
  14147 WAT       -36.4320  -76.6660   -3.0830 O         1 <0>         0.0000
  14148 WAT       -36.4320  -76.6660   -2.8330 O         1 <0>         0.0000
  14149 WAT       -36.4320  -76.6660   -2.5830 O         1 <0>         0.0000
  14150 WAT       -36.4320  -76.6660   -2.3330 O         1 <0>         0.0000
  14151 WAT       -36.4320  -76.6660   -2.0830 O         1 <0>         0.0000
  14152 WAT       -36.4320  -76.6660   -1.8330 O         1 <0>         0.0000
  14153 WAT       -36.4320  -76.6660   -1.5830 O         1 <0>         0.0000
  14154 WAT       -36.4320  -76.6660   -1.3330 O         1 <0>         0.0000
  14155 WAT       -36.4320  -76.6660   -1.0830 O         1 <0>         0.0000
  14156 WAT       -36.4320  -76.6660   -0.8330 O         1 <0>         0.0000
  14157 WAT       -36.4320  -76.6660   -0.5830 O         1 <0>         0.0000
  14158 WAT       -36.4320  -76.6660   -0.3330 O         1 <0>         0.0000
  14159 WAT       -36.4320  -76.6660   -0.0830 O         1 <0>         0.0000
  14160 WAT       -36.4320  -76.4160   -9.8330 O         1 <0>         0.0000
  14161 WAT       -36.4320  -76.4160   -9.5830 O         1 <0>         0.0000
  14162 WAT       -36.4320  -76.4160   -9.3330 O         1 <0>         0.0000
  14163 WAT       -36.4320  -76.4160   -9.0830 O         1 <0>         0.0000
  14164 WAT       -36.4320  -76.4160   -8.8330 O         1 <0>         0.0000
  14165 WAT       -36.4320  -76.4160   -8.5830 O         1 <0>         0.0000
  14166 WAT       -36.4320  -76.4160   -8.3330 O         1 <0>         0.0000
  14167 WAT       -36.4320  -76.4160   -8.0830 O         1 <0>         0.0000
  14168 WAT       -36.4320  -76.4160   -7.8330 O         1 <0>         0.0000
  14169 WAT       -36.4320  -76.4160   -7.5830 O         1 <0>         0.0000
  14170 WAT       -36.4320  -76.4160   -7.3330 O         1 <0>         0.0000
  14171 WAT       -36.4320  -76.4160   -7.0830 O         1 <0>         0.0000
  14172 WAT       -36.4320  -76.4160   -6.8330 O         1 <0>         0.0000
  14173 WAT       -36.4320  -76.4160   -6.5830 O         1 <0>         0.0000
  14174 WAT       -36.4320  -76.4160   -6.3330 O         1 <0>         0.0000
  14175 WAT       -36.4320  -76.4160   -6.0830 O         1 <0>         0.0000
  14176 WAT       -36.4320  -76.4160   -5.8330 O         1 <0>         0.0000
  14177 WAT       -36.4320  -76.4160   -5.5830 O         1 <0>         0.0000
  14178 WAT       -36.4320  -76.4160   -5.3330 O         1 <0>         0.0000
  14179 WAT       -36.4320  -76.4160   -5.0830 O         1 <0>         0.0000
  14180 WAT       -36.4320  -76.4160   -4.8330 O         1 <0>         0.0000
  14181 WAT       -36.4320  -76.4160   -4.5830 O         1 <0>         0.0000
  14182 WAT       -36.4320  -76.4160   -4.3330 O         1 <0>         0.0000
  14183 WAT       -36.4320  -76.4160   -4.0830 O         1 <0>         0.0000
  14184 WAT       -36.4320  -76.4160   -3.8330 O         1 <0>         0.0000
  14185 WAT       -36.4320  -76.4160   -3.5830 O         1 <0>         0.0000
  14186 WAT       -36.4320  -76.4160   -3.3330 O         1 <0>         0.0000
  14187 WAT       -36.4320  -76.4160   -3.0830 O         1 <0>         0.0000
  14188 WAT       -36.4320  -76.4160   -2.8330 O         1 <0>         0.0000
  14189 WAT       -36.4320  -76.4160   -2.5830 O         1 <0>         0.0000
  14190 WAT       -36.4320  -76.4160   -2.3330 O         1 <0>         0.0000
  14191 WAT       -36.4320  -76.4160   -2.0830 O         1 <0>         0.0000
  14192 WAT       -36.4320  -76.4160   -1.8330 O         1 <0>         0.0000
  14193 WAT       -36.4320  -76.4160   -1.5830 O         1 <0>         0.0000
  14194 WAT       -36.4320  -76.4160   -1.3330 O         1 <0>         0.0000
  14195 WAT       -36.4320  -76.4160   -1.0830 O         1 <0>         0.0000
  14196 WAT       -36.4320  -76.4160   -0.8330 O         1 <0>         0.0000
  14197 WAT       -36.4320  -76.4160   -0.5830 O         1 <0>         0.0000
  14198 WAT       -36.4320  -76.4160   -0.3330 O         1 <0>         0.0000
  14199 WAT       -36.4320  -76.4160   -0.0830 O         1 <0>         0.0000
  14200 WAT       -36.4320  -76.1660   -9.8330 O         1 <0>         0.0000
  14201 WAT       -36.4320  -76.1660   -9.5830 O         1 <0>         0.0000
  14202 WAT       -36.4320  -76.1660   -9.3330 O         1 <0>         0.0000
  14203 WAT       -36.4320  -76.1660   -9.0830 O         1 <0>         0.0000
  14204 WAT       -36.4320  -76.1660   -8.8330 O         1 <0>         0.0000
  14205 WAT       -36.4320  -76.1660   -8.5830 O         1 <0>         0.0000
  14206 WAT       -36.4320  -76.1660   -8.3330 O         1 <0>         0.0000
  14207 WAT       -36.4320  -76.1660   -8.0830 O         1 <0>         0.0000
  14208 WAT       -36.4320  -76.1660   -7.8330 O         1 <0>         0.0000
  14209 WAT       -36.4320  -76.1660   -7.5830 O         1 <0>         0.0000
  14210 WAT       -36.4320  -76.1660   -7.3330 O         1 <0>         0.0000
  14211 WAT       -36.4320  -76.1660   -7.0830 O         1 <0>         0.0000
  14212 WAT       -36.4320  -76.1660   -6.8330 O         1 <0>         0.0000
  14213 WAT       -36.4320  -76.1660   -6.5830 O         1 <0>         0.0000
  14214 WAT       -36.4320  -76.1660   -6.3330 O         1 <0>         0.0000
  14215 WAT       -36.4320  -76.1660   -6.0830 O         1 <0>         0.0000
  14216 WAT       -36.4320  -76.1660   -5.8330 O         1 <0>         0.0000
  14217 WAT       -36.4320  -76.1660   -5.5830 O         1 <0>         0.0000
  14218 WAT       -36.4320  -76.1660   -5.3330 O         1 <0>         0.0000
  14219 WAT       -36.4320  -76.1660   -5.0830 O         1 <0>         0.0000
  14220 WAT       -36.4320  -76.1660   -4.8330 O         1 <0>         0.0000
  14221 WAT       -36.4320  -76.1660   -4.5830 O         1 <0>         0.0000
  14222 WAT       -36.4320  -76.1660   -4.3330 O         1 <0>         0.0000
  14223 WAT       -36.4320  -76.1660   -4.0830 O         1 <0>         0.0000
  14224 WAT       -36.4320  -76.1660   -3.8330 O         1 <0>         0.0000
  14225 WAT       -36.4320  -76.1660   -3.5830 O         1 <0>         0.0000
  14226 WAT       -36.4320  -76.1660   -3.3330 O         1 <0>         0.0000
  14227 WAT       -36.4320  -76.1660   -3.0830 O         1 <0>         0.0000
  14228 WAT       -36.4320  -76.1660   -2.8330 O         1 <0>         0.0000
  14229 WAT       -36.4320  -76.1660   -2.5830 O         1 <0>         0.0000
  14230 WAT       -36.4320  -76.1660   -2.3330 O         1 <0>         0.0000
  14231 WAT       -36.4320  -76.1660   -2.0830 O         1 <0>         0.0000
  14232 WAT       -36.4320  -76.1660   -1.8330 O         1 <0>         0.0000
  14233 WAT       -36.4320  -76.1660   -1.5830 O         1 <0>         0.0000
  14234 WAT       -36.4320  -76.1660   -1.3330 O         1 <0>         0.0000
  14235 WAT       -36.4320  -76.1660   -1.0830 O         1 <0>         0.0000
  14236 WAT       -36.4320  -76.1660   -0.8330 O         1 <0>         0.0000
  14237 WAT       -36.4320  -76.1660   -0.5830 O         1 <0>         0.0000
  14238 WAT       -36.4320  -76.1660   -0.3330 O         1 <0>         0.0000
  14239 WAT       -36.4320  -76.1660   -0.0830 O         1 <0>         0.0000
  14240 WAT       -36.4320  -75.9160   -9.8330 O         1 <0>         0.0000
  14241 WAT       -36.4320  -75.9160   -9.5830 O         1 <0>         0.0000
  14242 WAT       -36.4320  -75.9160   -9.3330 O         1 <0>         0.0000
  14243 WAT       -36.4320  -75.9160   -9.0830 O         1 <0>         0.0000
  14244 WAT       -36.4320  -75.9160   -8.8330 O         1 <0>         0.0000
  14245 WAT       -36.4320  -75.9160   -8.5830 O         1 <0>         0.0000
  14246 WAT       -36.4320  -75.9160   -8.3330 O         1 <0>         0.0000
  14247 WAT       -36.4320  -75.9160   -8.0830 O         1 <0>         0.0000
  14248 WAT       -36.4320  -75.9160   -7.8330 O         1 <0>         0.0000
  14249 WAT       -36.4320  -75.9160   -7.5830 O         1 <0>         0.0000
  14250 WAT       -36.4320  -75.9160   -7.3330 O         1 <0>         0.0000
  14251 WAT       -36.4320  -75.9160   -7.0830 O         1 <0>         0.0000
  14252 WAT       -36.4320  -75.9160   -6.8330 O         1 <0>         0.0000
  14253 WAT       -36.4320  -75.9160   -6.5830 O         1 <0>         0.0000
  14254 WAT       -36.4320  -75.9160   -6.3330 O         1 <0>         0.0000
  14255 WAT       -36.4320  -75.9160   -6.0830 O         1 <0>         0.0000
  14256 WAT       -36.4320  -75.9160   -5.8330 O         1 <0>         0.0000
  14257 WAT       -36.4320  -75.9160   -5.5830 O         1 <0>         0.0000
  14258 WAT       -36.4320  -75.9160   -5.3330 O         1 <0>         0.0000
  14259 WAT       -36.4320  -75.9160   -5.0830 O         1 <0>         0.0000
  14260 WAT       -36.4320  -75.9160   -4.8330 O         1 <0>         0.0000
  14261 WAT       -36.4320  -75.9160   -4.5830 O         1 <0>         0.0000
  14262 WAT       -36.4320  -75.9160   -4.3330 O         1 <0>         0.0000
  14263 WAT       -36.4320  -75.9160   -4.0830 O         1 <0>         0.0000
  14264 WAT       -36.4320  -75.9160   -3.8330 O         1 <0>         0.0000
  14265 WAT       -36.4320  -75.9160   -3.5830 O         1 <0>         0.0000
  14266 WAT       -36.4320  -75.9160   -3.3330 O         1 <0>         0.0000
  14267 WAT       -36.4320  -75.9160   -3.0830 O         1 <0>         0.0000
  14268 WAT       -36.4320  -75.9160   -2.8330 O         1 <0>         0.0000
  14269 WAT       -36.4320  -75.9160   -2.5830 O         1 <0>         0.0000
  14270 WAT       -36.4320  -75.9160   -2.3330 O         1 <0>         0.0000
  14271 WAT       -36.4320  -75.9160   -2.0830 O         1 <0>         0.0000
  14272 WAT       -36.4320  -75.9160   -1.8330 O         1 <0>         0.0000
  14273 WAT       -36.4320  -75.9160   -1.5830 O         1 <0>         0.0000
  14274 WAT       -36.4320  -75.9160   -1.3330 O         1 <0>         0.0000
  14275 WAT       -36.4320  -75.9160   -1.0830 O         1 <0>         0.0000
  14276 WAT       -36.4320  -75.9160   -0.8330 O         1 <0>         0.0000
  14277 WAT       -36.4320  -75.9160   -0.5830 O         1 <0>         0.0000
  14278 WAT       -36.4320  -75.9160   -0.3330 O         1 <0>         0.0000
  14279 WAT       -36.4320  -75.9160   -0.0830 O         1 <0>         0.0000
  14280 WAT       -36.4320  -75.6660   -9.8330 O         1 <0>         0.0000
  14281 WAT       -36.4320  -75.6660   -9.5830 O         1 <0>         0.0000
  14282 WAT       -36.4320  -75.6660   -9.3330 O         1 <0>         0.0000
  14283 WAT       -36.4320  -75.6660   -9.0830 O         1 <0>         0.0000
  14284 WAT       -36.4320  -75.6660   -8.8330 O         1 <0>         0.0000
  14285 WAT       -36.4320  -75.6660   -8.5830 O         1 <0>         0.0000
  14286 WAT       -36.4320  -75.6660   -8.3330 O         1 <0>         0.0000
  14287 WAT       -36.4320  -75.6660   -8.0830 O         1 <0>         0.0000
  14288 WAT       -36.4320  -75.6660   -7.8330 O         1 <0>         0.0000
  14289 WAT       -36.4320  -75.6660   -7.5830 O         1 <0>         0.0000
  14290 WAT       -36.4320  -75.6660   -7.3330 O         1 <0>         0.0000
  14291 WAT       -36.4320  -75.6660   -7.0830 O         1 <0>         0.0000
  14292 WAT       -36.4320  -75.6660   -6.8330 O         1 <0>         0.0000
  14293 WAT       -36.4320  -75.6660   -6.5830 O         1 <0>         0.0000
  14294 WAT       -36.4320  -75.6660   -6.3330 O         1 <0>         0.0000
  14295 WAT       -36.4320  -75.6660   -6.0830 O         1 <0>         0.0000
  14296 WAT       -36.4320  -75.6660   -5.8330 O         1 <0>         0.0000
  14297 WAT       -36.4320  -75.6660   -5.5830 O         1 <0>         0.0000
  14298 WAT       -36.4320  -75.6660   -5.3330 O         1 <0>         0.0001
  14299 WAT       -36.4320  -75.6660   -5.0830 O         1 <0>         0.0001
  14300 WAT       -36.4320  -75.6660   -4.8330 O         1 <0>         0.0001
  14301 WAT       -36.4320  -75.6660   -4.5830 O         1 <0>         0.0001
  14302 WAT       -36.4320  -75.6660   -4.3330 O         1 <0>         0.0001
  14303 WAT       -36.4320  -75.6660   -4.0830 O         1 <0>         0.0001
  14304 WAT       -36.4320  -75.6660   -3.8330 O         1 <0>         0.0001
  14305 WAT       -36.4320  -75.6660   -3.5830 O         1 <0>         0.0000
  14306 WAT       -36.4320  -75.6660   -3.3330 O         1 <0>         0.0000
  14307 WAT       -36.4320  -75.6660   -3.0830 O         1 <0>         0.0000
  14308 WAT       -36.4320  -75.6660   -2.8330 O         1 <0>         0.0000
  14309 WAT       -36.4320  -75.6660   -2.5830 O         1 <0>         0.0000
  14310 WAT       -36.4320  -75.6660   -2.3330 O         1 <0>         0.0000
  14311 WAT       -36.4320  -75.6660   -2.0830 O         1 <0>         0.0000
  14312 WAT       -36.4320  -75.6660   -1.8330 O         1 <0>         0.0000
  14313 WAT       -36.4320  -75.6660   -1.5830 O         1 <0>         0.0000
  14314 WAT       -36.4320  -75.6660   -1.3330 O         1 <0>         0.0000
  14315 WAT       -36.4320  -75.6660   -1.0830 O         1 <0>         0.0000
  14316 WAT       -36.4320  -75.6660   -0.8330 O         1 <0>         0.0000
  14317 WAT       -36.4320  -75.6660   -0.5830 O         1 <0>         0.0000
  14318 WAT       -36.4320  -75.6660   -0.3330 O         1 <0>         0.0000
  14319 WAT       -36.4320  -75.6660   -0.0830 O         1 <0>         0.0000
  14320 WAT       -36.4320  -75.4160   -9.8330 O         1 <0>         0.0000
  14321 WAT       -36.4320  -75.4160   -9.5830 O         1 <0>         0.0000
  14322 WAT       -36.4320  -75.4160   -9.3330 O         1 <0>         0.0000
  14323 WAT       -36.4320  -75.4160   -9.0830 O         1 <0>         0.0000
  14324 WAT       -36.4320  -75.4160   -8.8330 O         1 <0>         0.0000
  14325 WAT       -36.4320  -75.4160   -8.5830 O         1 <0>         0.0000
  14326 WAT       -36.4320  -75.4160   -8.3330 O         1 <0>         0.0000
  14327 WAT       -36.4320  -75.4160   -8.0830 O         1 <0>         0.0000
  14328 WAT       -36.4320  -75.4160   -7.8330 O         1 <0>         0.0000
  14329 WAT       -36.4320  -75.4160   -7.5830 O         1 <0>         0.0000
  14330 WAT       -36.4320  -75.4160   -7.3330 O         1 <0>         0.0000
  14331 WAT       -36.4320  -75.4160   -7.0830 O         1 <0>         0.0000
  14332 WAT       -36.4320  -75.4160   -6.8330 O         1 <0>         0.0000
  14333 WAT       -36.4320  -75.4160   -6.5830 O         1 <0>         0.0000
  14334 WAT       -36.4320  -75.4160   -6.3330 O         1 <0>         0.0000
  14335 WAT       -36.4320  -75.4160   -6.0830 O         1 <0>         0.0000
  14336 WAT       -36.4320  -75.4160   -5.8330 O         1 <0>         0.0002
  14337 WAT       -36.4320  -75.4160   -5.5830 O         1 <0>         0.0004
  14338 WAT       -36.4320  -75.4160   -5.3330 O         1 <0>         0.0006
  14339 WAT       -36.4320  -75.4160   -5.0830 O         1 <0>         0.0008
  14340 WAT       -36.4320  -75.4160   -4.8330 O         1 <0>         0.0010
  14341 WAT       -36.4320  -75.4160   -4.5830 O         1 <0>         0.0010
  14342 WAT       -36.4320  -75.4160   -4.3330 O         1 <0>         0.0008
  14343 WAT       -36.4320  -75.4160   -4.0830 O         1 <0>         0.0007
  14344 WAT       -36.4320  -75.4160   -3.8330 O         1 <0>         0.0005
  14345 WAT       -36.4320  -75.4160   -3.5830 O         1 <0>         0.0004
  14346 WAT       -36.4320  -75.4160   -3.3330 O         1 <0>         0.0002
  14347 WAT       -36.4320  -75.4160   -3.0830 O         1 <0>         0.0000
  14348 WAT       -36.4320  -75.4160   -2.8330 O         1 <0>         0.0000
  14349 WAT       -36.4320  -75.4160   -2.5830 O         1 <0>         0.0000
  14350 WAT       -36.4320  -75.4160   -2.3330 O         1 <0>         0.0000
  14351 WAT       -36.4320  -75.4160   -2.0830 O         1 <0>         0.0000
  14352 WAT       -36.4320  -75.4160   -1.8330 O         1 <0>         0.0000
  14353 WAT       -36.4320  -75.4160   -1.5830 O         1 <0>         0.0000
  14354 WAT       -36.4320  -75.4160   -1.3330 O         1 <0>         0.0000
  14355 WAT       -36.4320  -75.4160   -1.0830 O         1 <0>         0.0000
  14356 WAT       -36.4320  -75.4160   -0.8330 O         1 <0>         0.0000
  14357 WAT       -36.4320  -75.4160   -0.5830 O         1 <0>         0.0000
  14358 WAT       -36.4320  -75.4160   -0.3330 O         1 <0>         0.0000
  14359 WAT       -36.4320  -75.4160   -0.0830 O         1 <0>         0.0000
  14360 WAT       -36.4320  -75.1660   -9.8330 O         1 <0>         0.0000
  14361 WAT       -36.4320  -75.1660   -9.5830 O         1 <0>         0.0000
  14362 WAT       -36.4320  -75.1660   -9.3330 O         1 <0>         0.0000
  14363 WAT       -36.4320  -75.1660   -9.0830 O         1 <0>         0.0000
  14364 WAT       -36.4320  -75.1660   -8.8330 O         1 <0>         0.0000
  14365 WAT       -36.4320  -75.1660   -8.5830 O         1 <0>         0.0000
  14366 WAT       -36.4320  -75.1660   -8.3330 O         1 <0>         0.0000
  14367 WAT       -36.4320  -75.1660   -8.0830 O         1 <0>         0.0000
  14368 WAT       -36.4320  -75.1660   -7.8330 O         1 <0>         0.0000
  14369 WAT       -36.4320  -75.1660   -7.5830 O         1 <0>         0.0000
  14370 WAT       -36.4320  -75.1660   -7.3330 O         1 <0>         0.0000
  14371 WAT       -36.4320  -75.1660   -7.0830 O         1 <0>         0.0000
  14372 WAT       -36.4320  -75.1660   -6.8330 O         1 <0>         0.0000
  14373 WAT       -36.4320  -75.1660   -6.5830 O         1 <0>         0.0000
  14374 WAT       -36.4320  -75.1660   -6.3330 O         1 <0>         0.0002
  14375 WAT       -36.4320  -75.1660   -6.0830 O         1 <0>         0.0005
  14376 WAT       -36.4320  -75.1660   -5.8330 O         1 <0>         0.0010
  14377 WAT       -36.4320  -75.1660   -5.5830 O         1 <0>         0.0018
  14378 WAT       -36.4320  -75.1660   -5.3330 O         1 <0>         0.0026
  14379 WAT       -36.4320  -75.1660   -5.0830 O         1 <0>         0.0034
  14380 WAT       -36.4320  -75.1660   -4.8330 O         1 <0>         0.0039
  14381 WAT       -36.4320  -75.1660   -4.5830 O         1 <0>         0.0038
  14382 WAT       -36.4320  -75.1660   -4.3330 O         1 <0>         0.0033
  14383 WAT       -36.4320  -75.1660   -4.0830 O         1 <0>         0.0028
  14384 WAT       -36.4320  -75.1660   -3.8330 O         1 <0>         0.0023
  14385 WAT       -36.4320  -75.1660   -3.5830 O         1 <0>         0.0017
  14386 WAT       -36.4320  -75.1660   -3.3330 O         1 <0>         0.0010
  14387 WAT       -36.4320  -75.1660   -3.0830 O         1 <0>         0.0004
  14388 WAT       -36.4320  -75.1660   -2.8330 O         1 <0>         0.0001
  14389 WAT       -36.4320  -75.1660   -2.5830 O         1 <0>         0.0000
  14390 WAT       -36.4320  -75.1660   -2.3330 O         1 <0>         0.0000
  14391 WAT       -36.4320  -75.1660   -2.0830 O         1 <0>         0.0000
  14392 WAT       -36.4320  -75.1660   -1.8330 O         1 <0>         0.0000
  14393 WAT       -36.4320  -75.1660   -1.5830 O         1 <0>         0.0000
  14394 WAT       -36.4320  -75.1660   -1.3330 O         1 <0>         0.0000
  14395 WAT       -36.4320  -75.1660   -1.0830 O         1 <0>         0.0000
  14396 WAT       -36.4320  -75.1660   -0.8330 O         1 <0>         0.0000
  14397 WAT       -36.4320  -75.1660   -0.5830 O         1 <0>         0.0000
  14398 WAT       -36.4320  -75.1660   -0.3330 O         1 <0>         0.0000
  14399 WAT       -36.4320  -75.1660   -0.0830 O         1 <0>         0.0000
  14400 WAT       -36.4320  -74.9160   -9.8330 O         1 <0>         0.0000
  14401 WAT       -36.4320  -74.9160   -9.5830 O         1 <0>         0.0000
  14402 WAT       -36.4320  -74.9160   -9.3330 O         1 <0>         0.0000
  14403 WAT       -36.4320  -74.9160   -9.0830 O         1 <0>         0.0000
  14404 WAT       -36.4320  -74.9160   -8.8330 O         1 <0>         0.0000
  14405 WAT       -36.4320  -74.9160   -8.5830 O         1 <0>         0.0000
  14406 WAT       -36.4320  -74.9160   -8.3330 O         1 <0>         0.0000
  14407 WAT       -36.4320  -74.9160   -8.0830 O         1 <0>         0.0000
  14408 WAT       -36.4320  -74.9160   -7.8330 O         1 <0>         0.0000
  14409 WAT       -36.4320  -74.9160   -7.5830 O         1 <0>         0.0000
  14410 WAT       -36.4320  -74.9160   -7.3330 O         1 <0>         0.0000
  14411 WAT       -36.4320  -74.9160   -7.0830 O         1 <0>         0.0000
  14412 WAT       -36.4320  -74.9160   -6.8330 O         1 <0>         0.0000
  14413 WAT       -36.4320  -74.9160   -6.5830 O         1 <0>         0.0004
  14414 WAT       -36.4320  -74.9160   -6.3330 O         1 <0>         0.0012
  14415 WAT       -36.4320  -74.9160   -6.0830 O         1 <0>         0.0027
  14416 WAT       -36.4320  -74.9160   -5.8330 O         1 <0>         0.0046
  14417 WAT       -36.4320  -74.9160   -5.5830 O         1 <0>         0.0065
  14418 WAT       -36.4320  -74.9160   -5.3330 O         1 <0>         0.0083
  14419 WAT       -36.4320  -74.9160   -5.0830 O         1 <0>         0.0099
  14420 WAT       -36.4320  -74.9160   -4.8330 O         1 <0>         0.0108
  14421 WAT       -36.4320  -74.9160   -4.5830 O         1 <0>         0.0106
  14422 WAT       -36.4320  -74.9160   -4.3330 O         1 <0>         0.0093
  14423 WAT       -36.4320  -74.9160   -4.0830 O         1 <0>         0.0077
  14424 WAT       -36.4320  -74.9160   -3.8330 O         1 <0>         0.0063
  14425 WAT       -36.4320  -74.9160   -3.5830 O         1 <0>         0.0050
  14426 WAT       -36.4320  -74.9160   -3.3330 O         1 <0>         0.0033
  14427 WAT       -36.4320  -74.9160   -3.0830 O         1 <0>         0.0015
  14428 WAT       -36.4320  -74.9160   -2.8330 O         1 <0>         0.0004
  14429 WAT       -36.4320  -74.9160   -2.5830 O         1 <0>         0.0000
  14430 WAT       -36.4320  -74.9160   -2.3330 O         1 <0>         0.0000
  14431 WAT       -36.4320  -74.9160   -2.0830 O         1 <0>         0.0000
  14432 WAT       -36.4320  -74.9160   -1.8330 O         1 <0>         0.0000
  14433 WAT       -36.4320  -74.9160   -1.5830 O         1 <0>         0.0000
  14434 WAT       -36.4320  -74.9160   -1.3330 O         1 <0>         0.0000
  14435 WAT       -36.4320  -74.9160   -1.0830 O         1 <0>         0.0000
  14436 WAT       -36.4320  -74.9160   -0.8330 O         1 <0>         0.0000
  14437 WAT       -36.4320  -74.9160   -0.5830 O         1 <0>         0.0000
  14438 WAT       -36.4320  -74.9160   -0.3330 O         1 <0>         0.0000
  14439 WAT       -36.4320  -74.9160   -0.0830 O         1 <0>         0.0000
  14440 WAT       -36.4320  -74.6660   -9.8330 O         1 <0>         0.0000
  14441 WAT       -36.4320  -74.6660   -9.5830 O         1 <0>         0.0000
  14442 WAT       -36.4320  -74.6660   -9.3330 O         1 <0>         0.0000
  14443 WAT       -36.4320  -74.6660   -9.0830 O         1 <0>         0.0000
  14444 WAT       -36.4320  -74.6660   -8.8330 O         1 <0>         0.0000
  14445 WAT       -36.4320  -74.6660   -8.5830 O         1 <0>         0.0000
  14446 WAT       -36.4320  -74.6660   -8.3330 O         1 <0>         0.0000
  14447 WAT       -36.4320  -74.6660   -8.0830 O         1 <0>         0.0000
  14448 WAT       -36.4320  -74.6660   -7.8330 O         1 <0>         0.0000
  14449 WAT       -36.4320  -74.6660   -7.5830 O         1 <0>         0.0000
  14450 WAT       -36.4320  -74.6660   -7.3330 O         1 <0>         0.0000
  14451 WAT       -36.4320  -74.6660   -7.0830 O         1 <0>         0.0000
  14452 WAT       -36.4320  -74.6660   -6.8330 O         1 <0>         0.0004
  14453 WAT       -36.4320  -74.6660   -6.5830 O         1 <0>         0.0020
  14454 WAT       -36.4320  -74.6660   -6.3330 O         1 <0>         0.0057
  14455 WAT       -36.4320  -74.6660   -6.0830 O         1 <0>         0.0111
  14456 WAT       -36.4320  -74.6660   -5.8330 O         1 <0>         0.0158
  14457 WAT       -36.4320  -74.6660   -5.5830 O         1 <0>         0.0189
  14458 WAT       -36.4320  -74.6660   -5.3330 O         1 <0>         0.0208
  14459 WAT       -36.4320  -74.6660   -5.0830 O         1 <0>         0.0224
  14460 WAT       -36.4320  -74.6660   -4.8330 O         1 <0>         0.0230
  14461 WAT       -36.4320  -74.6660   -4.5830 O         1 <0>         0.0215
  14462 WAT       -36.4320  -74.6660   -4.3330 O         1 <0>         0.0186
  14463 WAT       -36.4320  -74.6660   -4.0830 O         1 <0>         0.0153
  14464 WAT       -36.4320  -74.6660   -3.8330 O         1 <0>         0.0127
  14465 WAT       -36.4320  -74.6660   -3.5830 O         1 <0>         0.0103
  14466 WAT       -36.4320  -74.6660   -3.3330 O         1 <0>         0.0071
  14467 WAT       -36.4320  -74.6660   -3.0830 O         1 <0>         0.0036
  14468 WAT       -36.4320  -74.6660   -2.8330 O         1 <0>         0.0011
  14469 WAT       -36.4320  -74.6660   -2.5830 O         1 <0>         0.0002
  14470 WAT       -36.4320  -74.6660   -2.3330 O         1 <0>         0.0000
  14471 WAT       -36.4320  -74.6660   -2.0830 O         1 <0>         0.0000
  14472 WAT       -36.4320  -74.6660   -1.8330 O         1 <0>         0.0000
  14473 WAT       -36.4320  -74.6660   -1.5830 O         1 <0>         0.0000
  14474 WAT       -36.4320  -74.6660   -1.3330 O         1 <0>         0.0000
  14475 WAT       -36.4320  -74.6660   -1.0830 O         1 <0>         0.0000
  14476 WAT       -36.4320  -74.6660   -0.8330 O         1 <0>         0.0000
  14477 WAT       -36.4320  -74.6660   -0.5830 O         1 <0>         0.0000
  14478 WAT       -36.4320  -74.6660   -0.3330 O         1 <0>         0.0000
  14479 WAT       -36.4320  -74.6660   -0.0830 O         1 <0>         0.0000
  14480 WAT       -36.4320  -74.4160   -9.8330 O         1 <0>         0.0000
  14481 WAT       -36.4320  -74.4160   -9.5830 O         1 <0>         0.0000
  14482 WAT       -36.4320  -74.4160   -9.3330 O         1 <0>         0.0000
  14483 WAT       -36.4320  -74.4160   -9.0830 O         1 <0>         0.0000
  14484 WAT       -36.4320  -74.4160   -8.8330 O         1 <0>         0.0000
  14485 WAT       -36.4320  -74.4160   -8.5830 O         1 <0>         0.0000
  14486 WAT       -36.4320  -74.4160   -8.3330 O         1 <0>         0.0000
  14487 WAT       -36.4320  -74.4160   -8.0830 O         1 <0>         0.0000
  14488 WAT       -36.4320  -74.4160   -7.8330 O         1 <0>         0.0000
  14489 WAT       -36.4320  -74.4160   -7.5830 O         1 <0>         0.0000
  14490 WAT       -36.4320  -74.4160   -7.3330 O         1 <0>         0.0000
  14491 WAT       -36.4320  -74.4160   -7.0830 O         1 <0>         0.0002
  14492 WAT       -36.4320  -74.4160   -6.8330 O         1 <0>         0.0017
  14493 WAT       -36.4320  -74.4160   -6.5830 O         1 <0>         0.0071
  14494 WAT       -36.4320  -74.4160   -6.3330 O         1 <0>         0.0183
  14495 WAT       -36.4320  -74.4160   -6.0830 O         1 <0>         0.0325
  14496 WAT       -36.4320  -74.4160   -5.8330 O         1 <0>         0.0426
  14497 WAT       -36.4320  -74.4160   -5.5830 O         1 <0>         0.0447
  14498 WAT       -36.4320  -74.4160   -5.3330 O         1 <0>         0.0425
  14499 WAT       -36.4320  -74.4160   -5.0830 O         1 <0>         0.0405
  14500 WAT       -36.4320  -74.4160   -4.8330 O         1 <0>         0.0382
  14501 WAT       -36.4320  -74.4160   -4.5830 O         1 <0>         0.0338
  14502 WAT       -36.4320  -74.4160   -4.3330 O         1 <0>         0.0281
  14503 WAT       -36.4320  -74.4160   -4.0830 O         1 <0>         0.0229
  14504 WAT       -36.4320  -74.4160   -3.8330 O         1 <0>         0.0190
  14505 WAT       -36.4320  -74.4160   -3.5830 O         1 <0>         0.0157
  14506 WAT       -36.4320  -74.4160   -3.3330 O         1 <0>         0.0114
  14507 WAT       -36.4320  -74.4160   -3.0830 O         1 <0>         0.0062
  14508 WAT       -36.4320  -74.4160   -2.8330 O         1 <0>         0.0022
  14509 WAT       -36.4320  -74.4160   -2.5830 O         1 <0>         0.0004
  14510 WAT       -36.4320  -74.4160   -2.3330 O         1 <0>         0.0000
  14511 WAT       -36.4320  -74.4160   -2.0830 O         1 <0>         0.0000
  14512 WAT       -36.4320  -74.4160   -1.8330 O         1 <0>         0.0000
  14513 WAT       -36.4320  -74.4160   -1.5830 O         1 <0>         0.0000
  14514 WAT       -36.4320  -74.4160   -1.3330 O         1 <0>         0.0000
  14515 WAT       -36.4320  -74.4160   -1.0830 O         1 <0>         0.0000
  14516 WAT       -36.4320  -74.4160   -0.8330 O         1 <0>         0.0000
  14517 WAT       -36.4320  -74.4160   -0.5830 O         1 <0>         0.0000
  14518 WAT       -36.4320  -74.4160   -0.3330 O         1 <0>         0.0000
  14519 WAT       -36.4320  -74.4160   -0.0830 O         1 <0>         0.0000
  14520 WAT       -36.4320  -74.1660   -9.8330 O         1 <0>         0.0000
  14521 WAT       -36.4320  -74.1660   -9.5830 O         1 <0>         0.0000
  14522 WAT       -36.4320  -74.1660   -9.3330 O         1 <0>         0.0000
  14523 WAT       -36.4320  -74.1660   -9.0830 O         1 <0>         0.0000
  14524 WAT       -36.4320  -74.1660   -8.8330 O         1 <0>         0.0000
  14525 WAT       -36.4320  -74.1660   -8.5830 O         1 <0>         0.0000
  14526 WAT       -36.4320  -74.1660   -8.3330 O         1 <0>         0.0000
  14527 WAT       -36.4320  -74.1660   -8.0830 O         1 <0>         0.0000
  14528 WAT       -36.4320  -74.1660   -7.8330 O         1 <0>         0.0000
  14529 WAT       -36.4320  -74.1660   -7.5830 O         1 <0>         0.0000
  14530 WAT       -36.4320  -74.1660   -7.3330 O         1 <0>         0.0001
  14531 WAT       -36.4320  -74.1660   -7.0830 O         1 <0>         0.0009
  14532 WAT       -36.4320  -74.1660   -6.8330 O         1 <0>         0.0049
  14533 WAT       -36.4320  -74.1660   -6.5830 O         1 <0>         0.0174
  14534 WAT       -36.4320  -74.1660   -6.3330 O         1 <0>         0.0420
  14535 WAT       -36.4320  -74.1660   -6.0830 O         1 <0>         0.0712
  14536 WAT       -36.4320  -74.1660   -5.8330 O         1 <0>         0.0878
  14537 WAT       -36.4320  -74.1660   -5.5830 O         1 <0>         0.0840
  14538 WAT       -36.4320  -74.1660   -5.3330 O         1 <0>         0.0701
  14539 WAT       -36.4320  -74.1660   -5.0830 O         1 <0>         0.0582
  14540 WAT       -36.4320  -74.1660   -4.8330 O         1 <0>         0.0497
  14541 WAT       -36.4320  -74.1660   -4.5830 O         1 <0>         0.0410
  14542 WAT       -36.4320  -74.1660   -4.3330 O         1 <0>         0.0325
  14543 WAT       -36.4320  -74.1660   -4.0830 O         1 <0>         0.0258
  14544 WAT       -36.4320  -74.1660   -3.8330 O         1 <0>         0.0214
  14545 WAT       -36.4320  -74.1660   -3.5830 O         1 <0>         0.0179
  14546 WAT       -36.4320  -74.1660   -3.3330 O         1 <0>         0.0134
  14547 WAT       -36.4320  -74.1660   -3.0830 O         1 <0>         0.0077
  14548 WAT       -36.4320  -74.1660   -2.8330 O         1 <0>         0.0029
  14549 WAT       -36.4320  -74.1660   -2.5830 O         1 <0>         0.0007
  14550 WAT       -36.4320  -74.1660   -2.3330 O         1 <0>         0.0001
  14551 WAT       -36.4320  -74.1660   -2.0830 O         1 <0>         0.0000
  14552 WAT       -36.4320  -74.1660   -1.8330 O         1 <0>         0.0000
  14553 WAT       -36.4320  -74.1660   -1.5830 O         1 <0>         0.0000
  14554 WAT       -36.4320  -74.1660   -1.3330 O         1 <0>         0.0000
  14555 WAT       -36.4320  -74.1660   -1.0830 O         1 <0>         0.0000
  14556 WAT       -36.4320  -74.1660   -0.8330 O         1 <0>         0.0000
  14557 WAT       -36.4320  -74.1660   -0.5830 O         1 <0>         0.0000
  14558 WAT       -36.4320  -74.1660   -0.3330 O         1 <0>         0.0000
  14559 WAT       -36.4320  -74.1660   -0.0830 O         1 <0>         0.0000
  14560 WAT       -36.4320  -73.9160   -9.8330 O         1 <0>         0.0000
  14561 WAT       -36.4320  -73.9160   -9.5830 O         1 <0>         0.0000
  14562 WAT       -36.4320  -73.9160   -9.3330 O         1 <0>         0.0000
  14563 WAT       -36.4320  -73.9160   -9.0830 O         1 <0>         0.0000
  14564 WAT       -36.4320  -73.9160   -8.8330 O         1 <0>         0.0000
  14565 WAT       -36.4320  -73.9160   -8.5830 O         1 <0>         0.0000
  14566 WAT       -36.4320  -73.9160   -8.3330 O         1 <0>         0.0000
  14567 WAT       -36.4320  -73.9160   -8.0830 O         1 <0>         0.0000
  14568 WAT       -36.4320  -73.9160   -7.8330 O         1 <0>         0.0000
  14569 WAT       -36.4320  -73.9160   -7.5830 O         1 <0>         0.0000
  14570 WAT       -36.4320  -73.9160   -7.3330 O         1 <0>         0.0003
  14571 WAT       -36.4320  -73.9160   -7.0830 O         1 <0>         0.0018
  14572 WAT       -36.4320  -73.9160   -6.8330 O         1 <0>         0.0090
  14573 WAT       -36.4320  -73.9160   -6.5830 O         1 <0>         0.0301
  14574 WAT       -36.4320  -73.9160   -6.3330 O         1 <0>         0.0699
  14575 WAT       -36.4320  -73.9160   -6.0830 O         1 <0>         0.1153
  14576 WAT       -36.4320  -73.9160   -5.8330 O         1 <0>         0.1368
  14577 WAT       -36.4320  -73.9160   -5.5830 O         1 <0>         0.1223
  14578 WAT       -36.4320  -73.9160   -5.3330 O         1 <0>         0.0912
  14579 WAT       -36.4320  -73.9160   -5.0830 O         1 <0>         0.0658
  14580 WAT       -36.4320  -73.9160   -4.8330 O         1 <0>         0.0499
  14581 WAT       -36.4320  -73.9160   -4.5830 O         1 <0>         0.0382
  14582 WAT       -36.4320  -73.9160   -4.3330 O         1 <0>         0.0288
  14583 WAT       -36.4320  -73.9160   -4.0830 O         1 <0>         0.0221
  14584 WAT       -36.4320  -73.9160   -3.8330 O         1 <0>         0.0179
  14585 WAT       -36.4320  -73.9160   -3.5830 O         1 <0>         0.0150
  14586 WAT       -36.4320  -73.9160   -3.3330 O         1 <0>         0.0114
  14587 WAT       -36.4320  -73.9160   -3.0830 O         1 <0>         0.0067
  14588 WAT       -36.4320  -73.9160   -2.8330 O         1 <0>         0.0027
  14589 WAT       -36.4320  -73.9160   -2.5830 O         1 <0>         0.0007
  14590 WAT       -36.4320  -73.9160   -2.3330 O         1 <0>         0.0001
  14591 WAT       -36.4320  -73.9160   -2.0830 O         1 <0>         0.0000
  14592 WAT       -36.4320  -73.9160   -1.8330 O         1 <0>         0.0000
  14593 WAT       -36.4320  -73.9160   -1.5830 O         1 <0>         0.0000
  14594 WAT       -36.4320  -73.9160   -1.3330 O         1 <0>         0.0000
  14595 WAT       -36.4320  -73.9160   -1.0830 O         1 <0>         0.0000
  14596 WAT       -36.4320  -73.9160   -0.8330 O         1 <0>         0.0000
  14597 WAT       -36.4320  -73.9160   -0.5830 O         1 <0>         0.0000
  14598 WAT       -36.4320  -73.9160   -0.3330 O         1 <0>         0.0000
  14599 WAT       -36.4320  -73.9160   -0.0830 O         1 <0>         0.0000
  14600 WAT       -36.4320  -73.6660   -9.8330 O         1 <0>         0.0000
  14601 WAT       -36.4320  -73.6660   -9.5830 O         1 <0>         0.0000
  14602 WAT       -36.4320  -73.6660   -9.3330 O         1 <0>         0.0000
  14603 WAT       -36.4320  -73.6660   -9.0830 O         1 <0>         0.0000
  14604 WAT       -36.4320  -73.6660   -8.8330 O         1 <0>         0.0000
  14605 WAT       -36.4320  -73.6660   -8.5830 O         1 <0>         0.0000
  14606 WAT       -36.4320  -73.6660   -8.3330 O         1 <0>         0.0000
  14607 WAT       -36.4320  -73.6660   -8.0830 O         1 <0>         0.0000
  14608 WAT       -36.4320  -73.6660   -7.8330 O         1 <0>         0.0000
  14609 WAT       -36.4320  -73.6660   -7.5830 O         1 <0>         0.0000
  14610 WAT       -36.4320  -73.6660   -7.3330 O         1 <0>         0.0004
  14611 WAT       -36.4320  -73.6660   -7.0830 O         1 <0>         0.0025
  14612 WAT       -36.4320  -73.6660   -6.8330 O         1 <0>         0.0113
  14613 WAT       -36.4320  -73.6660   -6.5830 O         1 <0>         0.0363
  14614 WAT       -36.4320  -73.6660   -6.3330 O         1 <0>         0.0831
  14615 WAT       -36.4320  -73.6660   -6.0830 O         1 <0>         0.1353
  14616 WAT       -36.4320  -73.6660   -5.8330 O         1 <0>         0.1570
  14617 WAT       -36.4320  -73.6660   -5.5830 O         1 <0>         0.1339
  14618 WAT       -36.4320  -73.6660   -5.3330 O         1 <0>         0.0912
  14619 WAT       -36.4320  -73.6660   -5.0830 O         1 <0>         0.0575
  14620 WAT       -36.4320  -73.6660   -4.8330 O         1 <0>         0.0383
  14621 WAT       -36.4320  -73.6660   -4.5830 O         1 <0>         0.0271
  14622 WAT       -36.4320  -73.6660   -4.3330 O         1 <0>         0.0194
  14623 WAT       -36.4320  -73.6660   -4.0830 O         1 <0>         0.0141
  14624 WAT       -36.4320  -73.6660   -3.8330 O         1 <0>         0.0109
  14625 WAT       -36.4320  -73.6660   -3.5830 O         1 <0>         0.0089
  14626 WAT       -36.4320  -73.6660   -3.3330 O         1 <0>         0.0067
  14627 WAT       -36.4320  -73.6660   -3.0830 O         1 <0>         0.0040
  14628 WAT       -36.4320  -73.6660   -2.8330 O         1 <0>         0.0016
  14629 WAT       -36.4320  -73.6660   -2.5830 O         1 <0>         0.0004
  14630 WAT       -36.4320  -73.6660   -2.3330 O         1 <0>         0.0000
  14631 WAT       -36.4320  -73.6660   -2.0830 O         1 <0>         0.0000
  14632 WAT       -36.4320  -73.6660   -1.8330 O         1 <0>         0.0000
  14633 WAT       -36.4320  -73.6660   -1.5830 O         1 <0>         0.0000
  14634 WAT       -36.4320  -73.6660   -1.3330 O         1 <0>         0.0000
  14635 WAT       -36.4320  -73.6660   -1.0830 O         1 <0>         0.0000
  14636 WAT       -36.4320  -73.6660   -0.8330 O         1 <0>         0.0000
  14637 WAT       -36.4320  -73.6660   -0.5830 O         1 <0>         0.0000
  14638 WAT       -36.4320  -73.6660   -0.3330 O         1 <0>         0.0000
  14639 WAT       -36.4320  -73.6660   -0.0830 O         1 <0>         0.0000
  14640 WAT       -36.4320  -73.4160   -9.8330 O         1 <0>         0.0000
  14641 WAT       -36.4320  -73.4160   -9.5830 O         1 <0>         0.0000
  14642 WAT       -36.4320  -73.4160   -9.3330 O         1 <0>         0.0000
  14643 WAT       -36.4320  -73.4160   -9.0830 O         1 <0>         0.0000
  14644 WAT       -36.4320  -73.4160   -8.8330 O         1 <0>         0.0000
  14645 WAT       -36.4320  -73.4160   -8.5830 O         1 <0>         0.0000
  14646 WAT       -36.4320  -73.4160   -8.3330 O         1 <0>         0.0000
  14647 WAT       -36.4320  -73.4160   -8.0830 O         1 <0>         0.0000
  14648 WAT       -36.4320  -73.4160   -7.8330 O         1 <0>         0.0000
  14649 WAT       -36.4320  -73.4160   -7.5830 O         1 <0>         0.0001
  14650 WAT       -36.4320  -73.4160   -7.3330 O         1 <0>         0.0005
  14651 WAT       -36.4320  -73.4160   -7.0830 O         1 <0>         0.0024
  14652 WAT       -36.4320  -73.4160   -6.8330 O         1 <0>         0.0099
  14653 WAT       -36.4320  -73.4160   -6.5830 O         1 <0>         0.0307
  14654 WAT       -36.4320  -73.4160   -6.3330 O         1 <0>         0.0697
  14655 WAT       -36.4320  -73.4160   -6.0830 O         1 <0>         0.1131
  14656 WAT       -36.4320  -73.4160   -5.8330 O         1 <0>         0.1298
  14657 WAT       -36.4320  -73.4160   -5.5830 O         1 <0>         0.1072
  14658 WAT       -36.4320  -73.4160   -5.3330 O         1 <0>         0.0680
  14659 WAT       -36.4320  -73.4160   -5.0830 O         1 <0>         0.0379
  14660 WAT       -36.4320  -73.4160   -4.8330 O         1 <0>         0.0221
  14661 WAT       -36.4320  -73.4160   -4.5830 O         1 <0>         0.0142
  14662 WAT       -36.4320  -73.4160   -4.3330 O         1 <0>         0.0096
  14663 WAT       -36.4320  -73.4160   -4.0830 O         1 <0>         0.0065
  14664 WAT       -36.4320  -73.4160   -3.8330 O         1 <0>         0.0046
  14665 WAT       -36.4320  -73.4160   -3.5830 O         1 <0>         0.0035
  14666 WAT       -36.4320  -73.4160   -3.3330 O         1 <0>         0.0026
  14667 WAT       -36.4320  -73.4160   -3.0830 O         1 <0>         0.0015
  14668 WAT       -36.4320  -73.4160   -2.8330 O         1 <0>         0.0006
  14669 WAT       -36.4320  -73.4160   -2.5830 O         1 <0>         0.0001
  14670 WAT       -36.4320  -73.4160   -2.3330 O         1 <0>         0.0000
  14671 WAT       -36.4320  -73.4160   -2.0830 O         1 <0>         0.0000
  14672 WAT       -36.4320  -73.4160   -1.8330 O         1 <0>         0.0000
  14673 WAT       -36.4320  -73.4160   -1.5830 O         1 <0>         0.0000
  14674 WAT       -36.4320  -73.4160   -1.3330 O         1 <0>         0.0000
  14675 WAT       -36.4320  -73.4160   -1.0830 O         1 <0>         0.0000
  14676 WAT       -36.4320  -73.4160   -0.8330 O         1 <0>         0.0000
  14677 WAT       -36.4320  -73.4160   -0.5830 O         1 <0>         0.0000
  14678 WAT       -36.4320  -73.4160   -0.3330 O         1 <0>         0.0000
  14679 WAT       -36.4320  -73.4160   -0.0830 O         1 <0>         0.0000
  14680 WAT       -36.4320  -73.1660   -9.8330 O         1 <0>         0.0000
  14681 WAT       -36.4320  -73.1660   -9.5830 O         1 <0>         0.0000
  14682 WAT       -36.4320  -73.1660   -9.3330 O         1 <0>         0.0000
  14683 WAT       -36.4320  -73.1660   -9.0830 O         1 <0>         0.0000
  14684 WAT       -36.4320  -73.1660   -8.8330 O         1 <0>         0.0000
  14685 WAT       -36.4320  -73.1660   -8.5830 O         1 <0>         0.0000
  14686 WAT       -36.4320  -73.1660   -8.3330 O         1 <0>         0.0000
  14687 WAT       -36.4320  -73.1660   -8.0830 O         1 <0>         0.0000
  14688 WAT       -36.4320  -73.1660   -7.8330 O         1 <0>         0.0000
  14689 WAT       -36.4320  -73.1660   -7.5830 O         1 <0>         0.0001
  14690 WAT       -36.4320  -73.1660   -7.3330 O         1 <0>         0.0003
  14691 WAT       -36.4320  -73.1660   -7.0830 O         1 <0>         0.0016
  14692 WAT       -36.4320  -73.1660   -6.8330 O         1 <0>         0.0060
  14693 WAT       -36.4320  -73.1660   -6.5830 O         1 <0>         0.0182
  14694 WAT       -36.4320  -73.1660   -6.3330 O         1 <0>         0.0411
  14695 WAT       -36.4320  -73.1660   -6.0830 O         1 <0>         0.0668
  14696 WAT       -36.4320  -73.1660   -5.8330 O         1 <0>         0.0763
  14697 WAT       -36.4320  -73.1660   -5.5830 O         1 <0>         0.0616
  14698 WAT       -36.4320  -73.1660   -5.3330 O         1 <0>         0.0369
  14699 WAT       -36.4320  -73.1660   -5.0830 O         1 <0>         0.0183
  14700 WAT       -36.4320  -73.1660   -4.8330 O         1 <0>         0.0092
  14701 WAT       -36.4320  -73.1660   -4.5830 O         1 <0>         0.0053
  14702 WAT       -36.4320  -73.1660   -4.3330 O         1 <0>         0.0033
  14703 WAT       -36.4320  -73.1660   -4.0830 O         1 <0>         0.0020
  14704 WAT       -36.4320  -73.1660   -3.8330 O         1 <0>         0.0012
  14705 WAT       -36.4320  -73.1660   -3.5830 O         1 <0>         0.0008
  14706 WAT       -36.4320  -73.1660   -3.3330 O         1 <0>         0.0006
  14707 WAT       -36.4320  -73.1660   -3.0830 O         1 <0>         0.0003
  14708 WAT       -36.4320  -73.1660   -2.8330 O         1 <0>         0.0001
  14709 WAT       -36.4320  -73.1660   -2.5830 O         1 <0>         0.0000
  14710 WAT       -36.4320  -73.1660   -2.3330 O         1 <0>         0.0000
  14711 WAT       -36.4320  -73.1660   -2.0830 O         1 <0>         0.0000
  14712 WAT       -36.4320  -73.1660   -1.8330 O         1 <0>         0.0000
  14713 WAT       -36.4320  -73.1660   -1.5830 O         1 <0>         0.0000
  14714 WAT       -36.4320  -73.1660   -1.3330 O         1 <0>         0.0000
  14715 WAT       -36.4320  -73.1660   -1.0830 O         1 <0>         0.0000
  14716 WAT       -36.4320  -73.1660   -0.8330 O         1 <0>         0.0000
  14717 WAT       -36.4320  -73.1660   -0.5830 O         1 <0>         0.0000
  14718 WAT       -36.4320  -73.1660   -0.3330 O         1 <0>         0.0000
  14719 WAT       -36.4320  -73.1660   -0.0830 O         1 <0>         0.0000
  14720 WAT       -36.4320  -72.9160   -9.8330 O         1 <0>         0.0000
  14721 WAT       -36.4320  -72.9160   -9.5830 O         1 <0>         0.0000
  14722 WAT       -36.4320  -72.9160   -9.3330 O         1 <0>         0.0000
  14723 WAT       -36.4320  -72.9160   -9.0830 O         1 <0>         0.0000
  14724 WAT       -36.4320  -72.9160   -8.8330 O         1 <0>         0.0000
  14725 WAT       -36.4320  -72.9160   -8.5830 O         1 <0>         0.0000
  14726 WAT       -36.4320  -72.9160   -8.3330 O         1 <0>         0.0000
  14727 WAT       -36.4320  -72.9160   -8.0830 O         1 <0>         0.0000
  14728 WAT       -36.4320  -72.9160   -7.8330 O         1 <0>         0.0000
  14729 WAT       -36.4320  -72.9160   -7.5830 O         1 <0>         0.0000
  14730 WAT       -36.4320  -72.9160   -7.3330 O         1 <0>         0.0001
  14731 WAT       -36.4320  -72.9160   -7.0830 O         1 <0>         0.0007
  14732 WAT       -36.4320  -72.9160   -6.8330 O         1 <0>         0.0025
  14733 WAT       -36.4320  -72.9160   -6.5830 O         1 <0>         0.0075
  14734 WAT       -36.4320  -72.9160   -6.3330 O         1 <0>         0.0170
  14735 WAT       -36.4320  -72.9160   -6.0830 O         1 <0>         0.0276
  14736 WAT       -36.4320  -72.9160   -5.8330 O         1 <0>         0.0314
  14737 WAT       -36.4320  -72.9160   -5.5830 O         1 <0>         0.0249
  14738 WAT       -36.4320  -72.9160   -5.3330 O         1 <0>         0.0140
  14739 WAT       -36.4320  -72.9160   -5.0830 O         1 <0>         0.0061
  14740 WAT       -36.4320  -72.9160   -4.8330 O         1 <0>         0.0025
  14741 WAT       -36.4320  -72.9160   -4.5830 O         1 <0>         0.0012
  14742 WAT       -36.4320  -72.9160   -4.3330 O         1 <0>         0.0007
  14743 WAT       -36.4320  -72.9160   -4.0830 O         1 <0>         0.0003
  14744 WAT       -36.4320  -72.9160   -3.8330 O         1 <0>         0.0002
  14745 WAT       -36.4320  -72.9160   -3.5830 O         1 <0>         0.0001
  14746 WAT       -36.4320  -72.9160   -3.3330 O         1 <0>         0.0000
  14747 WAT       -36.4320  -72.9160   -3.0830 O         1 <0>         0.0000
  14748 WAT       -36.4320  -72.9160   -2.8330 O         1 <0>         0.0000
  14749 WAT       -36.4320  -72.9160   -2.5830 O         1 <0>         0.0000
  14750 WAT       -36.4320  -72.9160   -2.3330 O         1 <0>         0.0000
  14751 WAT       -36.4320  -72.9160   -2.0830 O         1 <0>         0.0000
  14752 WAT       -36.4320  -72.9160   -1.8330 O         1 <0>         0.0000
  14753 WAT       -36.4320  -72.9160   -1.5830 O         1 <0>         0.0000
  14754 WAT       -36.4320  -72.9160   -1.3330 O         1 <0>         0.0000
  14755 WAT       -36.4320  -72.9160   -1.0830 O         1 <0>         0.0000
  14756 WAT       -36.4320  -72.9160   -0.8330 O         1 <0>         0.0000
  14757 WAT       -36.4320  -72.9160   -0.5830 O         1 <0>         0.0000
  14758 WAT       -36.4320  -72.9160   -0.3330 O         1 <0>         0.0000
  14759 WAT       -36.4320  -72.9160   -0.0830 O         1 <0>         0.0000
  14760 WAT       -36.4320  -72.6660   -9.8330 O         1 <0>         0.0000
  14761 WAT       -36.4320  -72.6660   -9.5830 O         1 <0>         0.0000
  14762 WAT       -36.4320  -72.6660   -9.3330 O         1 <0>         0.0000
  14763 WAT       -36.4320  -72.6660   -9.0830 O         1 <0>         0.0000
  14764 WAT       -36.4320  -72.6660   -8.8330 O         1 <0>         0.0000
  14765 WAT       -36.4320  -72.6660   -8.5830 O         1 <0>         0.0000
  14766 WAT       -36.4320  -72.6660   -8.3330 O         1 <0>         0.0000
  14767 WAT       -36.4320  -72.6660   -8.0830 O         1 <0>         0.0000
  14768 WAT       -36.4320  -72.6660   -7.8330 O         1 <0>         0.0000
  14769 WAT       -36.4320  -72.6660   -7.5830 O         1 <0>         0.0000
  14770 WAT       -36.4320  -72.6660   -7.3330 O         1 <0>         0.0000
  14771 WAT       -36.4320  -72.6660   -7.0830 O         1 <0>         0.0002
  14772 WAT       -36.4320  -72.6660   -6.8330 O         1 <0>         0.0007
  14773 WAT       -36.4320  -72.6660   -6.5830 O         1 <0>         0.0021
  14774 WAT       -36.4320  -72.6660   -6.3330 O         1 <0>         0.0048
  14775 WAT       -36.4320  -72.6660   -6.0830 O         1 <0>         0.0078
  14776 WAT       -36.4320  -72.6660   -5.8330 O         1 <0>         0.0089
  14777 WAT       -36.4320  -72.6660   -5.5830 O         1 <0>         0.0068
  14778 WAT       -36.4320  -72.6660   -5.3330 O         1 <0>         0.0035
  14779 WAT       -36.4320  -72.6660   -5.0830 O         1 <0>         0.0013
  14780 WAT       -36.4320  -72.6660   -4.8330 O         1 <0>         0.0004
  14781 WAT       -36.4320  -72.6660   -4.5830 O         1 <0>         0.0001
  14782 WAT       -36.4320  -72.6660   -4.3330 O         1 <0>         0.0001
  14783 WAT       -36.4320  -72.6660   -4.0830 O         1 <0>         0.0000
  14784 WAT       -36.4320  -72.6660   -3.8330 O         1 <0>         0.0000
  14785 WAT       -36.4320  -72.6660   -3.5830 O         1 <0>         0.0000
  14786 WAT       -36.4320  -72.6660   -3.3330 O         1 <0>         0.0000
  14787 WAT       -36.4320  -72.6660   -3.0830 O         1 <0>         0.0000
  14788 WAT       -36.4320  -72.6660   -2.8330 O         1 <0>         0.0000
  14789 WAT       -36.4320  -72.6660   -2.5830 O         1 <0>         0.0000
  14790 WAT       -36.4320  -72.6660   -2.3330 O         1 <0>         0.0000
  14791 WAT       -36.4320  -72.6660   -2.0830 O         1 <0>         0.0000
  14792 WAT       -36.4320  -72.6660   -1.8330 O         1 <0>         0.0000
  14793 WAT       -36.4320  -72.6660   -1.5830 O         1 <0>         0.0000
  14794 WAT       -36.4320  -72.6660   -1.3330 O         1 <0>         0.0000
  14795 WAT       -36.4320  -72.6660   -1.0830 O         1 <0>         0.0000
  14796 WAT       -36.4320  -72.6660   -0.8330 O         1 <0>         0.0000
  14797 WAT       -36.4320  -72.6660   -0.5830 O         1 <0>         0.0000
  14798 WAT       -36.4320  -72.6660   -0.3330 O         1 <0>         0.0000
  14799 WAT       -36.4320  -72.6660   -0.0830 O         1 <0>         0.0000
  14800 WAT       -36.4320  -72.4160   -9.8330 O         1 <0>         0.0000
  14801 WAT       -36.4320  -72.4160   -9.5830 O         1 <0>         0.0000
  14802 WAT       -36.4320  -72.4160   -9.3330 O         1 <0>         0.0000
  14803 WAT       -36.4320  -72.4160   -9.0830 O         1 <0>         0.0000
  14804 WAT       -36.4320  -72.4160   -8.8330 O         1 <0>         0.0000
  14805 WAT       -36.4320  -72.4160   -8.5830 O         1 <0>         0.0000
  14806 WAT       -36.4320  -72.4160   -8.3330 O         1 <0>         0.0000
  14807 WAT       -36.4320  -72.4160   -8.0830 O         1 <0>         0.0000
  14808 WAT       -36.4320  -72.4160   -7.8330 O         1 <0>         0.0000
  14809 WAT       -36.4320  -72.4160   -7.5830 O         1 <0>         0.0000
  14810 WAT       -36.4320  -72.4160   -7.3330 O         1 <0>         0.0000
  14811 WAT       -36.4320  -72.4160   -7.0830 O         1 <0>         0.0000
  14812 WAT       -36.4320  -72.4160   -6.8330 O         1 <0>         0.0002
  14813 WAT       -36.4320  -72.4160   -6.5830 O         1 <0>         0.0004
  14814 WAT       -36.4320  -72.4160   -6.3330 O         1 <0>         0.0009
  14815 WAT       -36.4320  -72.4160   -6.0830 O         1 <0>         0.0015
  14816 WAT       -36.4320  -72.4160   -5.8330 O         1 <0>         0.0016
  14817 WAT       -36.4320  -72.4160   -5.5830 O         1 <0>         0.0011
  14818 WAT       -36.4320  -72.4160   -5.3330 O         1 <0>         0.0005
  14819 WAT       -36.4320  -72.4160   -5.0830 O         1 <0>         0.0001
  14820 WAT       -36.4320  -72.4160   -4.8330 O         1 <0>         0.0000
  14821 WAT       -36.4320  -72.4160   -4.5830 O         1 <0>         0.0000
  14822 WAT       -36.4320  -72.4160   -4.3330 O         1 <0>         0.0000
  14823 WAT       -36.4320  -72.4160   -4.0830 O         1 <0>         0.0000
  14824 WAT       -36.4320  -72.4160   -3.8330 O         1 <0>         0.0000
  14825 WAT       -36.4320  -72.4160   -3.5830 O         1 <0>         0.0000
  14826 WAT       -36.4320  -72.4160   -3.3330 O         1 <0>         0.0000
  14827 WAT       -36.4320  -72.4160   -3.0830 O         1 <0>         0.0000
  14828 WAT       -36.4320  -72.4160   -2.8330 O         1 <0>         0.0000
  14829 WAT       -36.4320  -72.4160   -2.5830 O         1 <0>         0.0000
  14830 WAT       -36.4320  -72.4160   -2.3330 O         1 <0>         0.0000
  14831 WAT       -36.4320  -72.4160   -2.0830 O         1 <0>         0.0000
  14832 WAT       -36.4320  -72.4160   -1.8330 O         1 <0>         0.0000
  14833 WAT       -36.4320  -72.4160   -1.5830 O         1 <0>         0.0000
  14834 WAT       -36.4320  -72.4160   -1.3330 O         1 <0>         0.0000
  14835 WAT       -36.4320  -72.4160   -1.0830 O         1 <0>         0.0000
  14836 WAT       -36.4320  -72.4160   -0.8330 O         1 <0>         0.0000
  14837 WAT       -36.4320  -72.4160   -0.5830 O         1 <0>         0.0000
  14838 WAT       -36.4320  -72.4160   -0.3330 O         1 <0>         0.0000
  14839 WAT       -36.4320  -72.4160   -0.0830 O         1 <0>         0.0000
  14840 WAT       -36.4320  -72.1660   -9.8330 O         1 <0>         0.0000
  14841 WAT       -36.4320  -72.1660   -9.5830 O         1 <0>         0.0000
  14842 WAT       -36.4320  -72.1660   -9.3330 O         1 <0>         0.0000
  14843 WAT       -36.4320  -72.1660   -9.0830 O         1 <0>         0.0000
  14844 WAT       -36.4320  -72.1660   -8.8330 O         1 <0>         0.0000
  14845 WAT       -36.4320  -72.1660   -8.5830 O         1 <0>         0.0000
  14846 WAT       -36.4320  -72.1660   -8.3330 O         1 <0>         0.0000
  14847 WAT       -36.4320  -72.1660   -8.0830 O         1 <0>         0.0000
  14848 WAT       -36.4320  -72.1660   -7.8330 O         1 <0>         0.0000
  14849 WAT       -36.4320  -72.1660   -7.5830 O         1 <0>         0.0000
  14850 WAT       -36.4320  -72.1660   -7.3330 O         1 <0>         0.0000
  14851 WAT       -36.4320  -72.1660   -7.0830 O         1 <0>         0.0000
  14852 WAT       -36.4320  -72.1660   -6.8330 O         1 <0>         0.0000
  14853 WAT       -36.4320  -72.1660   -6.5830 O         1 <0>         0.0001
  14854 WAT       -36.4320  -72.1660   -6.3330 O         1 <0>         0.0001
  14855 WAT       -36.4320  -72.1660   -6.0830 O         1 <0>         0.0002
  14856 WAT       -36.4320  -72.1660   -5.8330 O         1 <0>         0.0002
  14857 WAT       -36.4320  -72.1660   -5.5830 O         1 <0>         0.0001
  14858 WAT       -36.4320  -72.1660   -5.3330 O         1 <0>         0.0000
  14859 WAT       -36.4320  -72.1660   -5.0830 O         1 <0>         0.0000
  14860 WAT       -36.4320  -72.1660   -4.8330 O         1 <0>         0.0000
  14861 WAT       -36.4320  -72.1660   -4.5830 O         1 <0>         0.0000
  14862 WAT       -36.4320  -72.1660   -4.3330 O         1 <0>         0.0000
  14863 WAT       -36.4320  -72.1660   -4.0830 O         1 <0>         0.0000
  14864 WAT       -36.4320  -72.1660   -3.8330 O         1 <0>         0.0000
  14865 WAT       -36.4320  -72.1660   -3.5830 O         1 <0>         0.0000
  14866 WAT       -36.4320  -72.1660   -3.3330 O         1 <0>         0.0000
  14867 WAT       -36.4320  -72.1660   -3.0830 O         1 <0>         0.0000
  14868 WAT       -36.4320  -72.1660   -2.8330 O         1 <0>         0.0000
  14869 WAT       -36.4320  -72.1660   -2.5830 O         1 <0>         0.0000
  14870 WAT       -36.4320  -72.1660   -2.3330 O         1 <0>         0.0000
  14871 WAT       -36.4320  -72.1660   -2.0830 O         1 <0>         0.0000
  14872 WAT       -36.4320  -72.1660   -1.8330 O         1 <0>         0.0000
  14873 WAT       -36.4320  -72.1660   -1.5830 O         1 <0>         0.0000
  14874 WAT       -36.4320  -72.1660   -1.3330 O         1 <0>         0.0000
  14875 WAT       -36.4320  -72.1660   -1.0830 O         1 <0>         0.0000
  14876 WAT       -36.4320  -72.1660   -0.8330 O         1 <0>         0.0000
  14877 WAT       -36.4320  -72.1660   -0.5830 O         1 <0>         0.0000
  14878 WAT       -36.4320  -72.1660   -0.3330 O         1 <0>         0.0000
  14879 WAT       -36.4320  -72.1660   -0.0830 O         1 <0>         0.0000
  14880 WAT       -36.4320  -71.9160   -9.8330 O         1 <0>         0.0000
  14881 WAT       -36.4320  -71.9160   -9.5830 O         1 <0>         0.0000
  14882 WAT       -36.4320  -71.9160   -9.3330 O         1 <0>         0.0000
  14883 WAT       -36.4320  -71.9160   -9.0830 O         1 <0>         0.0000
  14884 WAT       -36.4320  -71.9160   -8.8330 O         1 <0>         0.0000
  14885 WAT       -36.4320  -71.9160   -8.5830 O         1 <0>         0.0000
  14886 WAT       -36.4320  -71.9160   -8.3330 O         1 <0>         0.0000
  14887 WAT       -36.4320  -71.9160   -8.0830 O         1 <0>         0.0000
  14888 WAT       -36.4320  -71.9160   -7.8330 O         1 <0>         0.0000
  14889 WAT       -36.4320  -71.9160   -7.5830 O         1 <0>         0.0000
  14890 WAT       -36.4320  -71.9160   -7.3330 O         1 <0>         0.0000
  14891 WAT       -36.4320  -71.9160   -7.0830 O         1 <0>         0.0000
  14892 WAT       -36.4320  -71.9160   -6.8330 O         1 <0>         0.0000
  14893 WAT       -36.4320  -71.9160   -6.5830 O         1 <0>         0.0000
  14894 WAT       -36.4320  -71.9160   -6.3330 O         1 <0>         0.0000
  14895 WAT       -36.4320  -71.9160   -6.0830 O         1 <0>         0.0000
  14896 WAT       -36.4320  -71.9160   -5.8330 O         1 <0>         0.0000
  14897 WAT       -36.4320  -71.9160   -5.5830 O         1 <0>         0.0000
  14898 WAT       -36.4320  -71.9160   -5.3330 O         1 <0>         0.0000
  14899 WAT       -36.4320  -71.9160   -5.0830 O         1 <0>         0.0000
  14900 WAT       -36.4320  -71.9160   -4.8330 O         1 <0>         0.0000
  14901 WAT       -36.4320  -71.9160   -4.5830 O         1 <0>         0.0000
  14902 WAT       -36.4320  -71.9160   -4.3330 O         1 <0>         0.0000
  14903 WAT       -36.4320  -71.9160   -4.0830 O         1 <0>         0.0000
  14904 WAT       -36.4320  -71.9160   -3.8330 O         1 <0>         0.0000
  14905 WAT       -36.4320  -71.9160   -3.5830 O         1 <0>         0.0000
  14906 WAT       -36.4320  -71.9160   -3.3330 O         1 <0>         0.0000
  14907 WAT       -36.4320  -71.9160   -3.0830 O         1 <0>         0.0000
  14908 WAT       -36.4320  -71.9160   -2.8330 O         1 <0>         0.0000
  14909 WAT       -36.4320  -71.9160   -2.5830 O         1 <0>         0.0000
  14910 WAT       -36.4320  -71.9160   -2.3330 O         1 <0>         0.0000
  14911 WAT       -36.4320  -71.9160   -2.0830 O         1 <0>         0.0000
  14912 WAT       -36.4320  -71.9160   -1.8330 O         1 <0>         0.0000
  14913 WAT       -36.4320  -71.9160   -1.5830 O         1 <0>         0.0000
  14914 WAT       -36.4320  -71.9160   -1.3330 O         1 <0>         0.0000
  14915 WAT       -36.4320  -71.9160   -1.0830 O         1 <0>         0.0000
  14916 WAT       -36.4320  -71.9160   -0.8330 O         1 <0>         0.0000
  14917 WAT       -36.4320  -71.9160   -0.5830 O         1 <0>         0.0000
  14918 WAT       -36.4320  -71.9160   -0.3330 O         1 <0>         0.0000
  14919 WAT       -36.4320  -71.9160   -0.0830 O         1 <0>         0.0000
  14920 WAT       -36.4320  -71.6660   -9.8330 O         1 <0>         0.0000
  14921 WAT       -36.4320  -71.6660   -9.5830 O         1 <0>         0.0000
  14922 WAT       -36.4320  -71.6660   -9.3330 O         1 <0>         0.0000
  14923 WAT       -36.4320  -71.6660   -9.0830 O         1 <0>         0.0000
  14924 WAT       -36.4320  -71.6660   -8.8330 O         1 <0>         0.0000
  14925 WAT       -36.4320  -71.6660   -8.5830 O         1 <0>         0.0000
  14926 WAT       -36.4320  -71.6660   -8.3330 O         1 <0>         0.0000
  14927 WAT       -36.4320  -71.6660   -8.0830 O         1 <0>         0.0000
  14928 WAT       -36.4320  -71.6660   -7.8330 O         1 <0>         0.0000
  14929 WAT       -36.4320  -71.6660   -7.5830 O         1 <0>         0.0000
  14930 WAT       -36.4320  -71.6660   -7.3330 O         1 <0>         0.0000
  14931 WAT       -36.4320  -71.6660   -7.0830 O         1 <0>         0.0000
  14932 WAT       -36.4320  -71.6660   -6.8330 O         1 <0>         0.0000
  14933 WAT       -36.4320  -71.6660   -6.5830 O         1 <0>         0.0000
  14934 WAT       -36.4320  -71.6660   -6.3330 O         1 <0>         0.0000
  14935 WAT       -36.4320  -71.6660   -6.0830 O         1 <0>         0.0000
  14936 WAT       -36.4320  -71.6660   -5.8330 O         1 <0>         0.0000
  14937 WAT       -36.4320  -71.6660   -5.5830 O         1 <0>         0.0000
  14938 WAT       -36.4320  -71.6660   -5.3330 O         1 <0>         0.0000
  14939 WAT       -36.4320  -71.6660   -5.0830 O         1 <0>         0.0000
  14940 WAT       -36.4320  -71.6660   -4.8330 O         1 <0>         0.0000
  14941 WAT       -36.4320  -71.6660   -4.5830 O         1 <0>         0.0000
  14942 WAT       -36.4320  -71.6660   -4.3330 O         1 <0>         0.0000
  14943 WAT       -36.4320  -71.6660   -4.0830 O         1 <0>         0.0000
  14944 WAT       -36.4320  -71.6660   -3.8330 O         1 <0>         0.0000
  14945 WAT       -36.4320  -71.6660   -3.5830 O         1 <0>         0.0000
  14946 WAT       -36.4320  -71.6660   -3.3330 O         1 <0>         0.0000
  14947 WAT       -36.4320  -71.6660   -3.0830 O         1 <0>         0.0000
  14948 WAT       -36.4320  -71.6660   -2.8330 O         1 <0>         0.0000
  14949 WAT       -36.4320  -71.6660   -2.5830 O         1 <0>         0.0000
  14950 WAT       -36.4320  -71.6660   -2.3330 O         1 <0>         0.0000
  14951 WAT       -36.4320  -71.6660   -2.0830 O         1 <0>         0.0000
  14952 WAT       -36.4320  -71.6660   -1.8330 O         1 <0>         0.0000
  14953 WAT       -36.4320  -71.6660   -1.5830 O         1 <0>         0.0000
  14954 WAT       -36.4320  -71.6660   -1.3330 O         1 <0>         0.0000
  14955 WAT       -36.4320  -71.6660   -1.0830 O         1 <0>         0.0000
  14956 WAT       -36.4320  -71.6660   -0.8330 O         1 <0>         0.0000
  14957 WAT       -36.4320  -71.6660   -0.5830 O         1 <0>         0.0000
  14958 WAT       -36.4320  -71.6660   -0.3330 O         1 <0>         0.0000
  14959 WAT       -36.4320  -71.6660   -0.0830 O         1 <0>         0.0000
  14960 WAT       -36.4320  -71.4160   -9.8330 O         1 <0>         0.0000
  14961 WAT       -36.4320  -71.4160   -9.5830 O         1 <0>         0.0000
  14962 WAT       -36.4320  -71.4160   -9.3330 O         1 <0>         0.0000
  14963 WAT       -36.4320  -71.4160   -9.0830 O         1 <0>         0.0000
  14964 WAT       -36.4320  -71.4160   -8.8330 O         1 <0>         0.0000
  14965 WAT       -36.4320  -71.4160   -8.5830 O         1 <0>         0.0000
  14966 WAT       -36.4320  -71.4160   -8.3330 O         1 <0>         0.0000
  14967 WAT       -36.4320  -71.4160   -8.0830 O         1 <0>         0.0000
  14968 WAT       -36.4320  -71.4160   -7.8330 O         1 <0>         0.0000
  14969 WAT       -36.4320  -71.4160   -7.5830 O         1 <0>         0.0000
  14970 WAT       -36.4320  -71.4160   -7.3330 O         1 <0>         0.0000
  14971 WAT       -36.4320  -71.4160   -7.0830 O         1 <0>         0.0000
  14972 WAT       -36.4320  -71.4160   -6.8330 O         1 <0>         0.0000
  14973 WAT       -36.4320  -71.4160   -6.5830 O         1 <0>         0.0000
  14974 WAT       -36.4320  -71.4160   -6.3330 O         1 <0>         0.0000
  14975 WAT       -36.4320  -71.4160   -6.0830 O         1 <0>         0.0000
  14976 WAT       -36.4320  -71.4160   -5.8330 O         1 <0>         0.0000
  14977 WAT       -36.4320  -71.4160   -5.5830 O         1 <0>         0.0000
  14978 WAT       -36.4320  -71.4160   -5.3330 O         1 <0>         0.0000
  14979 WAT       -36.4320  -71.4160   -5.0830 O         1 <0>         0.0000
  14980 WAT       -36.4320  -71.4160   -4.8330 O         1 <0>         0.0000
  14981 WAT       -36.4320  -71.4160   -4.5830 O         1 <0>         0.0000
  14982 WAT       -36.4320  -71.4160   -4.3330 O         1 <0>         0.0000
  14983 WAT       -36.4320  -71.4160   -4.0830 O         1 <0>         0.0000
  14984 WAT       -36.4320  -71.4160   -3.8330 O         1 <0>         0.0000
  14985 WAT       -36.4320  -71.4160   -3.5830 O         1 <0>         0.0000
  14986 WAT       -36.4320  -71.4160   -3.3330 O         1 <0>         0.0000
  14987 WAT       -36.4320  -71.4160   -3.0830 O         1 <0>         0.0000
  14988 WAT       -36.4320  -71.4160   -2.8330 O         1 <0>         0.0000
  14989 WAT       -36.4320  -71.4160   -2.5830 O         1 <0>         0.0000
  14990 WAT       -36.4320  -71.4160   -2.3330 O         1 <0>         0.0000
  14991 WAT       -36.4320  -71.4160   -2.0830 O         1 <0>         0.0000
  14992 WAT       -36.4320  -71.4160   -1.8330 O         1 <0>         0.0000
  14993 WAT       -36.4320  -71.4160   -1.5830 O         1 <0>         0.0000
  14994 WAT       -36.4320  -71.4160   -1.3330 O         1 <0>         0.0000
  14995 WAT       -36.4320  -71.4160   -1.0830 O         1 <0>         0.0000
  14996 WAT       -36.4320  -71.4160   -0.8330 O         1 <0>         0.0000
  14997 WAT       -36.4320  -71.4160   -0.5830 O         1 <0>         0.0000
  14998 WAT       -36.4320  -71.4160   -0.3330 O         1 <0>         0.0000
  14999 WAT       -36.4320  -71.4160   -0.0830 O         1 <0>         0.0000
  15000 WAT       -36.4320  -71.1660   -9.8330 O         1 <0>         0.0000
  15001 WAT       -36.4320  -71.1660   -9.5830 O         1 <0>         0.0000
  15002 WAT       -36.4320  -71.1660   -9.3330 O         1 <0>         0.0000
  15003 WAT       -36.4320  -71.1660   -9.0830 O         1 <0>         0.0000
  15004 WAT       -36.4320  -71.1660   -8.8330 O         1 <0>         0.0000
  15005 WAT       -36.4320  -71.1660   -8.5830 O         1 <0>         0.0000
  15006 WAT       -36.4320  -71.1660   -8.3330 O         1 <0>         0.0000
  15007 WAT       -36.4320  -71.1660   -8.0830 O         1 <0>         0.0000
  15008 WAT       -36.4320  -71.1660   -7.8330 O         1 <0>         0.0000
  15009 WAT       -36.4320  -71.1660   -7.5830 O         1 <0>         0.0000
  15010 WAT       -36.4320  -71.1660   -7.3330 O         1 <0>         0.0000
  15011 WAT       -36.4320  -71.1660   -7.0830 O         1 <0>         0.0000
  15012 WAT       -36.4320  -71.1660   -6.8330 O         1 <0>         0.0000
  15013 WAT       -36.4320  -71.1660   -6.5830 O         1 <0>         0.0000
  15014 WAT       -36.4320  -71.1660   -6.3330 O         1 <0>         0.0000
  15015 WAT       -36.4320  -71.1660   -6.0830 O         1 <0>         0.0000
  15016 WAT       -36.4320  -71.1660   -5.8330 O         1 <0>         0.0000
  15017 WAT       -36.4320  -71.1660   -5.5830 O         1 <0>         0.0000
  15018 WAT       -36.4320  -71.1660   -5.3330 O         1 <0>         0.0000
  15019 WAT       -36.4320  -71.1660   -5.0830 O         1 <0>         0.0000
  15020 WAT       -36.4320  -71.1660   -4.8330 O         1 <0>         0.0000
  15021 WAT       -36.4320  -71.1660   -4.5830 O         1 <0>         0.0000
  15022 WAT       -36.4320  -71.1660   -4.3330 O         1 <0>         0.0000
  15023 WAT       -36.4320  -71.1660   -4.0830 O         1 <0>         0.0000
  15024 WAT       -36.4320  -71.1660   -3.8330 O         1 <0>         0.0000
  15025 WAT       -36.4320  -71.1660   -3.5830 O         1 <0>         0.0000
  15026 WAT       -36.4320  -71.1660   -3.3330 O         1 <0>         0.0000
  15027 WAT       -36.4320  -71.1660   -3.0830 O         1 <0>         0.0000
  15028 WAT       -36.4320  -71.1660   -2.8330 O         1 <0>         0.0000
  15029 WAT       -36.4320  -71.1660   -2.5830 O         1 <0>         0.0000
  15030 WAT       -36.4320  -71.1660   -2.3330 O         1 <0>         0.0000
  15031 WAT       -36.4320  -71.1660   -2.0830 O         1 <0>         0.0000
  15032 WAT       -36.4320  -71.1660   -1.8330 O         1 <0>         0.0000
  15033 WAT       -36.4320  -71.1660   -1.5830 O         1 <0>         0.0000
  15034 WAT       -36.4320  -71.1660   -1.3330 O         1 <0>         0.0000
  15035 WAT       -36.4320  -71.1660   -1.0830 O         1 <0>         0.0000
  15036 WAT       -36.4320  -71.1660   -0.8330 O         1 <0>         0.0000
  15037 WAT       -36.4320  -71.1660   -0.5830 O         1 <0>         0.0000
  15038 WAT       -36.4320  -71.1660   -0.3330 O         1 <0>         0.0000
  15039 WAT       -36.4320  -71.1660   -0.0830 O         1 <0>         0.0000
  15040 WAT       -36.4320  -70.9160   -9.8330 O         1 <0>         0.0000
  15041 WAT       -36.4320  -70.9160   -9.5830 O         1 <0>         0.0000
  15042 WAT       -36.4320  -70.9160   -9.3330 O         1 <0>         0.0000
  15043 WAT       -36.4320  -70.9160   -9.0830 O         1 <0>         0.0000
  15044 WAT       -36.4320  -70.9160   -8.8330 O         1 <0>         0.0000
  15045 WAT       -36.4320  -70.9160   -8.5830 O         1 <0>         0.0000
  15046 WAT       -36.4320  -70.9160   -8.3330 O         1 <0>         0.0000
  15047 WAT       -36.4320  -70.9160   -8.0830 O         1 <0>         0.0000
  15048 WAT       -36.4320  -70.9160   -7.8330 O         1 <0>         0.0000
  15049 WAT       -36.4320  -70.9160   -7.5830 O         1 <0>         0.0000
  15050 WAT       -36.4320  -70.9160   -7.3330 O         1 <0>         0.0000
  15051 WAT       -36.4320  -70.9160   -7.0830 O         1 <0>         0.0000
  15052 WAT       -36.4320  -70.9160   -6.8330 O         1 <0>         0.0000
  15053 WAT       -36.4320  -70.9160   -6.5830 O         1 <0>         0.0000
  15054 WAT       -36.4320  -70.9160   -6.3330 O         1 <0>         0.0000
  15055 WAT       -36.4320  -70.9160   -6.0830 O         1 <0>         0.0000
  15056 WAT       -36.4320  -70.9160   -5.8330 O         1 <0>         0.0000
  15057 WAT       -36.4320  -70.9160   -5.5830 O         1 <0>         0.0000
  15058 WAT       -36.4320  -70.9160   -5.3330 O         1 <0>         0.0000
  15059 WAT       -36.4320  -70.9160   -5.0830 O         1 <0>         0.0000
  15060 WAT       -36.4320  -70.9160   -4.8330 O         1 <0>         0.0000
  15061 WAT       -36.4320  -70.9160   -4.5830 O         1 <0>         0.0000
  15062 WAT       -36.4320  -70.9160   -4.3330 O         1 <0>         0.0000
  15063 WAT       -36.4320  -70.9160   -4.0830 O         1 <0>         0.0000
  15064 WAT       -36.4320  -70.9160   -3.8330 O         1 <0>         0.0000
  15065 WAT       -36.4320  -70.9160   -3.5830 O         1 <0>         0.0000
  15066 WAT       -36.4320  -70.9160   -3.3330 O         1 <0>         0.0000
  15067 WAT       -36.4320  -70.9160   -3.0830 O         1 <0>         0.0000
  15068 WAT       -36.4320  -70.9160   -2.8330 O         1 <0>         0.0000
  15069 WAT       -36.4320  -70.9160   -2.5830 O         1 <0>         0.0000
  15070 WAT       -36.4320  -70.9160   -2.3330 O         1 <0>         0.0000
  15071 WAT       -36.4320  -70.9160   -2.0830 O         1 <0>         0.0000
  15072 WAT       -36.4320  -70.9160   -1.8330 O         1 <0>         0.0000
  15073 WAT       -36.4320  -70.9160   -1.5830 O         1 <0>         0.0000
  15074 WAT       -36.4320  -70.9160   -1.3330 O         1 <0>         0.0000
  15075 WAT       -36.4320  -70.9160   -1.0830 O         1 <0>         0.0000
  15076 WAT       -36.4320  -70.9160   -0.8330 O         1 <0>         0.0000
  15077 WAT       -36.4320  -70.9160   -0.5830 O         1 <0>         0.0000
  15078 WAT       -36.4320  -70.9160   -0.3330 O         1 <0>         0.0000
  15079 WAT       -36.4320  -70.9160   -0.0830 O         1 <0>         0.0000
  15080 WAT       -36.4320  -70.6660   -9.8330 O         1 <0>         0.0000
  15081 WAT       -36.4320  -70.6660   -9.5830 O         1 <0>         0.0000
  15082 WAT       -36.4320  -70.6660   -9.3330 O         1 <0>         0.0000
  15083 WAT       -36.4320  -70.6660   -9.0830 O         1 <0>         0.0000
  15084 WAT       -36.4320  -70.6660   -8.8330 O         1 <0>         0.0000
  15085 WAT       -36.4320  -70.6660   -8.5830 O         1 <0>         0.0000
  15086 WAT       -36.4320  -70.6660   -8.3330 O         1 <0>         0.0000
  15087 WAT       -36.4320  -70.6660   -8.0830 O         1 <0>         0.0000
  15088 WAT       -36.4320  -70.6660   -7.8330 O         1 <0>         0.0000
  15089 WAT       -36.4320  -70.6660   -7.5830 O         1 <0>         0.0000
  15090 WAT       -36.4320  -70.6660   -7.3330 O         1 <0>         0.0000
  15091 WAT       -36.4320  -70.6660   -7.0830 O         1 <0>         0.0000
  15092 WAT       -36.4320  -70.6660   -6.8330 O         1 <0>         0.0000
  15093 WAT       -36.4320  -70.6660   -6.5830 O         1 <0>         0.0000
  15094 WAT       -36.4320  -70.6660   -6.3330 O         1 <0>         0.0000
  15095 WAT       -36.4320  -70.6660   -6.0830 O         1 <0>         0.0000
  15096 WAT       -36.4320  -70.6660   -5.8330 O         1 <0>         0.0000
  15097 WAT       -36.4320  -70.6660   -5.5830 O         1 <0>         0.0000
  15098 WAT       -36.4320  -70.6660   -5.3330 O         1 <0>         0.0000
  15099 WAT       -36.4320  -70.6660   -5.0830 O         1 <0>         0.0000
  15100 WAT       -36.4320  -70.6660   -4.8330 O         1 <0>         0.0000
  15101 WAT       -36.4320  -70.6660   -4.5830 O         1 <0>         0.0000
  15102 WAT       -36.4320  -70.6660   -4.3330 O         1 <0>         0.0000
  15103 WAT       -36.4320  -70.6660   -4.0830 O         1 <0>         0.0000
  15104 WAT       -36.4320  -70.6660   -3.8330 O         1 <0>         0.0000
  15105 WAT       -36.4320  -70.6660   -3.5830 O         1 <0>         0.0000
  15106 WAT       -36.4320  -70.6660   -3.3330 O         1 <0>         0.0000
  15107 WAT       -36.4320  -70.6660   -3.0830 O         1 <0>         0.0000
  15108 WAT       -36.4320  -70.6660   -2.8330 O         1 <0>         0.0000
  15109 WAT       -36.4320  -70.6660   -2.5830 O         1 <0>         0.0000
  15110 WAT       -36.4320  -70.6660   -2.3330 O         1 <0>         0.0000
  15111 WAT       -36.4320  -70.6660   -2.0830 O         1 <0>         0.0000
  15112 WAT       -36.4320  -70.6660   -1.8330 O         1 <0>         0.0000
  15113 WAT       -36.4320  -70.6660   -1.5830 O         1 <0>         0.0000
  15114 WAT       -36.4320  -70.6660   -1.3330 O         1 <0>         0.0000
  15115 WAT       -36.4320  -70.6660   -1.0830 O         1 <0>         0.0000
  15116 WAT       -36.4320  -70.6660   -0.8330 O         1 <0>         0.0000
  15117 WAT       -36.4320  -70.6660   -0.5830 O         1 <0>         0.0000
  15118 WAT       -36.4320  -70.6660   -0.3330 O         1 <0>         0.0000
  15119 WAT       -36.4320  -70.6660   -0.0830 O         1 <0>         0.0000
  15120 WAT       -36.4320  -70.4160   -9.8330 O         1 <0>         0.0000
  15121 WAT       -36.4320  -70.4160   -9.5830 O         1 <0>         0.0000
  15122 WAT       -36.4320  -70.4160   -9.3330 O         1 <0>         0.0000
  15123 WAT       -36.4320  -70.4160   -9.0830 O         1 <0>         0.0000
  15124 WAT       -36.4320  -70.4160   -8.8330 O         1 <0>         0.0000
  15125 WAT       -36.4320  -70.4160   -8.5830 O         1 <0>         0.0000
  15126 WAT       -36.4320  -70.4160   -8.3330 O         1 <0>         0.0000
  15127 WAT       -36.4320  -70.4160   -8.0830 O         1 <0>         0.0000
  15128 WAT       -36.4320  -70.4160   -7.8330 O         1 <0>         0.0000
  15129 WAT       -36.4320  -70.4160   -7.5830 O         1 <0>         0.0000
  15130 WAT       -36.4320  -70.4160   -7.3330 O         1 <0>         0.0000
  15131 WAT       -36.4320  -70.4160   -7.0830 O         1 <0>         0.0000
  15132 WAT       -36.4320  -70.4160   -6.8330 O         1 <0>         0.0000
  15133 WAT       -36.4320  -70.4160   -6.5830 O         1 <0>         0.0000
  15134 WAT       -36.4320  -70.4160   -6.3330 O         1 <0>         0.0000
  15135 WAT       -36.4320  -70.4160   -6.0830 O         1 <0>         0.0000
  15136 WAT       -36.4320  -70.4160   -5.8330 O         1 <0>         0.0000
  15137 WAT       -36.4320  -70.4160   -5.5830 O         1 <0>         0.0000
  15138 WAT       -36.4320  -70.4160   -5.3330 O         1 <0>         0.0000
  15139 WAT       -36.4320  -70.4160   -5.0830 O         1 <0>         0.0000
  15140 WAT       -36.4320  -70.4160   -4.8330 O         1 <0>         0.0000
  15141 WAT       -36.4320  -70.4160   -4.5830 O         1 <0>         0.0000
  15142 WAT       -36.4320  -70.4160   -4.3330 O         1 <0>         0.0000
  15143 WAT       -36.4320  -70.4160   -4.0830 O         1 <0>         0.0000
  15144 WAT       -36.4320  -70.4160   -3.8330 O         1 <0>         0.0000
  15145 WAT       -36.4320  -70.4160   -3.5830 O         1 <0>         0.0000
  15146 WAT       -36.4320  -70.4160   -3.3330 O         1 <0>         0.0000
  15147 WAT       -36.4320  -70.4160   -3.0830 O         1 <0>         0.0000
  15148 WAT       -36.4320  -70.4160   -2.8330 O         1 <0>         0.0000
  15149 WAT       -36.4320  -70.4160   -2.5830 O         1 <0>         0.0000
  15150 WAT       -36.4320  -70.4160   -2.3330 O         1 <0>         0.0000
  15151 WAT       -36.4320  -70.4160   -2.0830 O         1 <0>         0.0000
  15152 WAT       -36.4320  -70.4160   -1.8330 O         1 <0>         0.0000
  15153 WAT       -36.4320  -70.4160   -1.5830 O         1 <0>         0.0000
  15154 WAT       -36.4320  -70.4160   -1.3330 O         1 <0>         0.0000
  15155 WAT       -36.4320  -70.4160   -1.0830 O         1 <0>         0.0000
  15156 WAT       -36.4320  -70.4160   -0.8330 O         1 <0>         0.0000
  15157 WAT       -36.4320  -70.4160   -0.5830 O         1 <0>         0.0000
  15158 WAT       -36.4320  -70.4160   -0.3330 O         1 <0>         0.0000
  15159 WAT       -36.4320  -70.4160   -0.0830 O         1 <0>         0.0000
  15160 WAT       -36.4320  -70.1660   -9.8330 O         1 <0>         0.0000
  15161 WAT       -36.4320  -70.1660   -9.5830 O         1 <0>         0.0000
  15162 WAT       -36.4320  -70.1660   -9.3330 O         1 <0>         0.0000
  15163 WAT       -36.4320  -70.1660   -9.0830 O         1 <0>         0.0000
  15164 WAT       -36.4320  -70.1660   -8.8330 O         1 <0>         0.0000
  15165 WAT       -36.4320  -70.1660   -8.5830 O         1 <0>         0.0000
  15166 WAT       -36.4320  -70.1660   -8.3330 O         1 <0>         0.0000
  15167 WAT       -36.4320  -70.1660   -8.0830 O         1 <0>         0.0000
  15168 WAT       -36.4320  -70.1660   -7.8330 O         1 <0>         0.0000
  15169 WAT       -36.4320  -70.1660   -7.5830 O         1 <0>         0.0000
  15170 WAT       -36.4320  -70.1660   -7.3330 O         1 <0>         0.0000
  15171 WAT       -36.4320  -70.1660   -7.0830 O         1 <0>         0.0000
  15172 WAT       -36.4320  -70.1660   -6.8330 O         1 <0>         0.0000
  15173 WAT       -36.4320  -70.1660   -6.5830 O         1 <0>         0.0000
  15174 WAT       -36.4320  -70.1660   -6.3330 O         1 <0>         0.0000
  15175 WAT       -36.4320  -70.1660   -6.0830 O         1 <0>         0.0000
  15176 WAT       -36.4320  -70.1660   -5.8330 O         1 <0>         0.0000
  15177 WAT       -36.4320  -70.1660   -5.5830 O         1 <0>         0.0000
  15178 WAT       -36.4320  -70.1660   -5.3330 O         1 <0>         0.0000
  15179 WAT       -36.4320  -70.1660   -5.0830 O         1 <0>         0.0000
  15180 WAT       -36.4320  -70.1660   -4.8330 O         1 <0>         0.0000
  15181 WAT       -36.4320  -70.1660   -4.5830 O         1 <0>         0.0000
  15182 WAT       -36.4320  -70.1660   -4.3330 O         1 <0>         0.0000
  15183 WAT       -36.4320  -70.1660   -4.0830 O         1 <0>         0.0000
  15184 WAT       -36.4320  -70.1660   -3.8330 O         1 <0>         0.0000
  15185 WAT       -36.4320  -70.1660   -3.5830 O         1 <0>         0.0000
  15186 WAT       -36.4320  -70.1660   -3.3330 O         1 <0>         0.0000
  15187 WAT       -36.4320  -70.1660   -3.0830 O         1 <0>         0.0000
  15188 WAT       -36.4320  -70.1660   -2.8330 O         1 <0>         0.0000
  15189 WAT       -36.4320  -70.1660   -2.5830 O         1 <0>         0.0000
  15190 WAT       -36.4320  -70.1660   -2.3330 O         1 <0>         0.0000
  15191 WAT       -36.4320  -70.1660   -2.0830 O         1 <0>         0.0000
  15192 WAT       -36.4320  -70.1660   -1.8330 O         1 <0>         0.0000
  15193 WAT       -36.4320  -70.1660   -1.5830 O         1 <0>         0.0000
  15194 WAT       -36.4320  -70.1660   -1.3330 O         1 <0>         0.0000
  15195 WAT       -36.4320  -70.1660   -1.0830 O         1 <0>         0.0000
  15196 WAT       -36.4320  -70.1660   -0.8330 O         1 <0>         0.0000
  15197 WAT       -36.4320  -70.1660   -0.5830 O         1 <0>         0.0000
  15198 WAT       -36.4320  -70.1660   -0.3330 O         1 <0>         0.0000
  15199 WAT       -36.4320  -70.1660   -0.0830 O         1 <0>         0.0000
  15200 WAT       -36.4320  -69.9160   -9.8330 O         1 <0>         0.0000
  15201 WAT       -36.4320  -69.9160   -9.5830 O         1 <0>         0.0000
  15202 WAT       -36.4320  -69.9160   -9.3330 O         1 <0>         0.0000
  15203 WAT       -36.4320  -69.9160   -9.0830 O         1 <0>         0.0000
  15204 WAT       -36.4320  -69.9160   -8.8330 O         1 <0>         0.0000
  15205 WAT       -36.4320  -69.9160   -8.5830 O         1 <0>         0.0000
  15206 WAT       -36.4320  -69.9160   -8.3330 O         1 <0>         0.0000
  15207 WAT       -36.4320  -69.9160   -8.0830 O         1 <0>         0.0000
  15208 WAT       -36.4320  -69.9160   -7.8330 O         1 <0>         0.0000
  15209 WAT       -36.4320  -69.9160   -7.5830 O         1 <0>         0.0000
  15210 WAT       -36.4320  -69.9160   -7.3330 O         1 <0>         0.0000
  15211 WAT       -36.4320  -69.9160   -7.0830 O         1 <0>         0.0000
  15212 WAT       -36.4320  -69.9160   -6.8330 O         1 <0>         0.0000
  15213 WAT       -36.4320  -69.9160   -6.5830 O         1 <0>         0.0000
  15214 WAT       -36.4320  -69.9160   -6.3330 O         1 <0>         0.0000
  15215 WAT       -36.4320  -69.9160   -6.0830 O         1 <0>         0.0000
  15216 WAT       -36.4320  -69.9160   -5.8330 O         1 <0>         0.0000
  15217 WAT       -36.4320  -69.9160   -5.5830 O         1 <0>         0.0000
  15218 WAT       -36.4320  -69.9160   -5.3330 O         1 <0>         0.0000
  15219 WAT       -36.4320  -69.9160   -5.0830 O         1 <0>         0.0000
  15220 WAT       -36.4320  -69.9160   -4.8330 O         1 <0>         0.0000
  15221 WAT       -36.4320  -69.9160   -4.5830 O         1 <0>         0.0000
  15222 WAT       -36.4320  -69.9160   -4.3330 O         1 <0>         0.0000
  15223 WAT       -36.4320  -69.9160   -4.0830 O         1 <0>         0.0000
  15224 WAT       -36.4320  -69.9160   -3.8330 O         1 <0>         0.0000
  15225 WAT       -36.4320  -69.9160   -3.5830 O         1 <0>         0.0000
  15226 WAT       -36.4320  -69.9160   -3.3330 O         1 <0>         0.0000
  15227 WAT       -36.4320  -69.9160   -3.0830 O         1 <0>         0.0000
  15228 WAT       -36.4320  -69.9160   -2.8330 O         1 <0>         0.0000
  15229 WAT       -36.4320  -69.9160   -2.5830 O         1 <0>         0.0000
  15230 WAT       -36.4320  -69.9160   -2.3330 O         1 <0>         0.0000
  15231 WAT       -36.4320  -69.9160   -2.0830 O         1 <0>         0.0000
  15232 WAT       -36.4320  -69.9160   -1.8330 O         1 <0>         0.0000
  15233 WAT       -36.4320  -69.9160   -1.5830 O         1 <0>         0.0000
  15234 WAT       -36.4320  -69.9160   -1.3330 O         1 <0>         0.0000
  15235 WAT       -36.4320  -69.9160   -1.0830 O         1 <0>         0.0000
  15236 WAT       -36.4320  -69.9160   -0.8330 O         1 <0>         0.0000
  15237 WAT       -36.4320  -69.9160   -0.5830 O         1 <0>         0.0000
  15238 WAT       -36.4320  -69.9160   -0.3330 O         1 <0>         0.0000
  15239 WAT       -36.4320  -69.9160   -0.0830 O         1 <0>         0.0000
  15240 WAT       -36.4320  -69.6660   -9.8330 O         1 <0>         0.0000
  15241 WAT       -36.4320  -69.6660   -9.5830 O         1 <0>         0.0000
  15242 WAT       -36.4320  -69.6660   -9.3330 O         1 <0>         0.0000
  15243 WAT       -36.4320  -69.6660   -9.0830 O         1 <0>         0.0000
  15244 WAT       -36.4320  -69.6660   -8.8330 O         1 <0>         0.0000
  15245 WAT       -36.4320  -69.6660   -8.5830 O         1 <0>         0.0000
  15246 WAT       -36.4320  -69.6660   -8.3330 O         1 <0>         0.0000
  15247 WAT       -36.4320  -69.6660   -8.0830 O         1 <0>         0.0000
  15248 WAT       -36.4320  -69.6660   -7.8330 O         1 <0>         0.0000
  15249 WAT       -36.4320  -69.6660   -7.5830 O         1 <0>         0.0000
  15250 WAT       -36.4320  -69.6660   -7.3330 O         1 <0>         0.0000
  15251 WAT       -36.4320  -69.6660   -7.0830 O         1 <0>         0.0000
  15252 WAT       -36.4320  -69.6660   -6.8330 O         1 <0>         0.0000
  15253 WAT       -36.4320  -69.6660   -6.5830 O         1 <0>         0.0000
  15254 WAT       -36.4320  -69.6660   -6.3330 O         1 <0>         0.0000
  15255 WAT       -36.4320  -69.6660   -6.0830 O         1 <0>         0.0000
  15256 WAT       -36.4320  -69.6660   -5.8330 O         1 <0>         0.0000
  15257 WAT       -36.4320  -69.6660   -5.5830 O         1 <0>         0.0000
  15258 WAT       -36.4320  -69.6660   -5.3330 O         1 <0>         0.0000
  15259 WAT       -36.4320  -69.6660   -5.0830 O         1 <0>         0.0000
  15260 WAT       -36.4320  -69.6660   -4.8330 O         1 <0>         0.0000
  15261 WAT       -36.4320  -69.6660   -4.5830 O         1 <0>         0.0000
  15262 WAT       -36.4320  -69.6660   -4.3330 O         1 <0>         0.0000
  15263 WAT       -36.4320  -69.6660   -4.0830 O         1 <0>         0.0000
  15264 WAT       -36.4320  -69.6660   -3.8330 O         1 <0>         0.0000
  15265 WAT       -36.4320  -69.6660   -3.5830 O         1 <0>         0.0000
  15266 WAT       -36.4320  -69.6660   -3.3330 O         1 <0>         0.0000
  15267 WAT       -36.4320  -69.6660   -3.0830 O         1 <0>         0.0000
  15268 WAT       -36.4320  -69.6660   -2.8330 O         1 <0>         0.0000
  15269 WAT       -36.4320  -69.6660   -2.5830 O         1 <0>         0.0000
  15270 WAT       -36.4320  -69.6660   -2.3330 O         1 <0>         0.0000
  15271 WAT       -36.4320  -69.6660   -2.0830 O         1 <0>         0.0000
  15272 WAT       -36.4320  -69.6660   -1.8330 O         1 <0>         0.0000
  15273 WAT       -36.4320  -69.6660   -1.5830 O         1 <0>         0.0000
  15274 WAT       -36.4320  -69.6660   -1.3330 O         1 <0>         0.0000
  15275 WAT       -36.4320  -69.6660   -1.0830 O         1 <0>         0.0000
  15276 WAT       -36.4320  -69.6660   -0.8330 O         1 <0>         0.0000
  15277 WAT       -36.4320  -69.6660   -0.5830 O         1 <0>         0.0000
  15278 WAT       -36.4320  -69.6660   -0.3330 O         1 <0>         0.0000
  15279 WAT       -36.4320  -69.6660   -0.0830 O         1 <0>         0.0000
  15280 WAT       -36.4320  -69.4160   -9.8330 O         1 <0>         0.0000
  15281 WAT       -36.4320  -69.4160   -9.5830 O         1 <0>         0.0000
  15282 WAT       -36.4320  -69.4160   -9.3330 O         1 <0>         0.0000
  15283 WAT       -36.4320  -69.4160   -9.0830 O         1 <0>         0.0000
  15284 WAT       -36.4320  -69.4160   -8.8330 O         1 <0>         0.0000
  15285 WAT       -36.4320  -69.4160   -8.5830 O         1 <0>         0.0000
  15286 WAT       -36.4320  -69.4160   -8.3330 O         1 <0>         0.0000
  15287 WAT       -36.4320  -69.4160   -8.0830 O         1 <0>         0.0000
  15288 WAT       -36.4320  -69.4160   -7.8330 O         1 <0>         0.0000
  15289 WAT       -36.4320  -69.4160   -7.5830 O         1 <0>         0.0000
  15290 WAT       -36.4320  -69.4160   -7.3330 O         1 <0>         0.0000
  15291 WAT       -36.4320  -69.4160   -7.0830 O         1 <0>         0.0000
  15292 WAT       -36.4320  -69.4160   -6.8330 O         1 <0>         0.0000
  15293 WAT       -36.4320  -69.4160   -6.5830 O         1 <0>         0.0000
  15294 WAT       -36.4320  -69.4160   -6.3330 O         1 <0>         0.0000
  15295 WAT       -36.4320  -69.4160   -6.0830 O         1 <0>         0.0000
  15296 WAT       -36.4320  -69.4160   -5.8330 O         1 <0>         0.0000
  15297 WAT       -36.4320  -69.4160   -5.5830 O         1 <0>         0.0000
  15298 WAT       -36.4320  -69.4160   -5.3330 O         1 <0>         0.0000
  15299 WAT       -36.4320  -69.4160   -5.0830 O         1 <0>         0.0000
  15300 WAT       -36.4320  -69.4160   -4.8330 O         1 <0>         0.0000
  15301 WAT       -36.4320  -69.4160   -4.5830 O         1 <0>         0.0000
  15302 WAT       -36.4320  -69.4160   -4.3330 O         1 <0>         0.0000
  15303 WAT       -36.4320  -69.4160   -4.0830 O         1 <0>         0.0000
  15304 WAT       -36.4320  -69.4160   -3.8330 O         1 <0>         0.0000
  15305 WAT       -36.4320  -69.4160   -3.5830 O         1 <0>         0.0000
  15306 WAT       -36.4320  -69.4160   -3.3330 O         1 <0>         0.0000
  15307 WAT       -36.4320  -69.4160   -3.0830 O         1 <0>         0.0000
  15308 WAT       -36.4320  -69.4160   -2.8330 O         1 <0>         0.0000
  15309 WAT       -36.4320  -69.4160   -2.5830 O         1 <0>         0.0000
  15310 WAT       -36.4320  -69.4160   -2.3330 O         1 <0>         0.0000
  15311 WAT       -36.4320  -69.4160   -2.0830 O         1 <0>         0.0000
  15312 WAT       -36.4320  -69.4160   -1.8330 O         1 <0>         0.0000
  15313 WAT       -36.4320  -69.4160   -1.5830 O         1 <0>         0.0000
  15314 WAT       -36.4320  -69.4160   -1.3330 O         1 <0>         0.0000
  15315 WAT       -36.4320  -69.4160   -1.0830 O         1 <0>         0.0000
  15316 WAT       -36.4320  -69.4160   -0.8330 O         1 <0>         0.0000
  15317 WAT       -36.4320  -69.4160   -0.5830 O         1 <0>         0.0000
  15318 WAT       -36.4320  -69.4160   -0.3330 O         1 <0>         0.0000
  15319 WAT       -36.4320  -69.4160   -0.0830 O         1 <0>         0.0000
  15320 WAT       -36.4320  -69.1660   -9.8330 O         1 <0>         0.0000
  15321 WAT       -36.4320  -69.1660   -9.5830 O         1 <0>         0.0000
  15322 WAT       -36.4320  -69.1660   -9.3330 O         1 <0>         0.0000
  15323 WAT       -36.4320  -69.1660   -9.0830 O         1 <0>         0.0000
  15324 WAT       -36.4320  -69.1660   -8.8330 O         1 <0>         0.0000
  15325 WAT       -36.4320  -69.1660   -8.5830 O         1 <0>         0.0000
  15326 WAT       -36.4320  -69.1660   -8.3330 O         1 <0>         0.0000
  15327 WAT       -36.4320  -69.1660   -8.0830 O         1 <0>         0.0000
  15328 WAT       -36.4320  -69.1660   -7.8330 O         1 <0>         0.0000
  15329 WAT       -36.4320  -69.1660   -7.5830 O         1 <0>         0.0000
  15330 WAT       -36.4320  -69.1660   -7.3330 O         1 <0>         0.0000
  15331 WAT       -36.4320  -69.1660   -7.0830 O         1 <0>         0.0000
  15332 WAT       -36.4320  -69.1660   -6.8330 O         1 <0>         0.0000
  15333 WAT       -36.4320  -69.1660   -6.5830 O         1 <0>         0.0000
  15334 WAT       -36.4320  -69.1660   -6.3330 O         1 <0>         0.0000
  15335 WAT       -36.4320  -69.1660   -6.0830 O         1 <0>         0.0000
  15336 WAT       -36.4320  -69.1660   -5.8330 O         1 <0>         0.0000
  15337 WAT       -36.4320  -69.1660   -5.5830 O         1 <0>         0.0000
  15338 WAT       -36.4320  -69.1660   -5.3330 O         1 <0>         0.0000
  15339 WAT       -36.4320  -69.1660   -5.0830 O         1 <0>         0.0000
  15340 WAT       -36.4320  -69.1660   -4.8330 O         1 <0>         0.0000
  15341 WAT       -36.4320  -69.1660   -4.5830 O         1 <0>         0.0000
  15342 WAT       -36.4320  -69.1660   -4.3330 O         1 <0>         0.0000
  15343 WAT       -36.4320  -69.1660   -4.0830 O         1 <0>         0.0000
  15344 WAT       -36.4320  -69.1660   -3.8330 O         1 <0>         0.0000
  15345 WAT       -36.4320  -69.1660   -3.5830 O         1 <0>         0.0000
  15346 WAT       -36.4320  -69.1660   -3.3330 O         1 <0>         0.0000
  15347 WAT       -36.4320  -69.1660   -3.0830 O         1 <0>         0.0000
  15348 WAT       -36.4320  -69.1660   -2.8330 O         1 <0>         0.0000
  15349 WAT       -36.4320  -69.1660   -2.5830 O         1 <0>         0.0000
  15350 WAT       -36.4320  -69.1660   -2.3330 O         1 <0>         0.0000
  15351 WAT       -36.4320  -69.1660   -2.0830 O         1 <0>         0.0000
  15352 WAT       -36.4320  -69.1660   -1.8330 O         1 <0>         0.0000
  15353 WAT       -36.4320  -69.1660   -1.5830 O         1 <0>         0.0000
  15354 WAT       -36.4320  -69.1660   -1.3330 O         1 <0>         0.0000
  15355 WAT       -36.4320  -69.1660   -1.0830 O         1 <0>         0.0000
  15356 WAT       -36.4320  -69.1660   -0.8330 O         1 <0>         0.0000
  15357 WAT       -36.4320  -69.1660   -0.5830 O         1 <0>         0.0000
  15358 WAT       -36.4320  -69.1660   -0.3330 O         1 <0>         0.0000
  15359 WAT       -36.4320  -69.1660   -0.0830 O         1 <0>         0.0000
  15360 WAT       -36.4320  -68.9160   -9.8330 O         1 <0>         0.0000
  15361 WAT       -36.4320  -68.9160   -9.5830 O         1 <0>         0.0000
  15362 WAT       -36.4320  -68.9160   -9.3330 O         1 <0>         0.0000
  15363 WAT       -36.4320  -68.9160   -9.0830 O         1 <0>         0.0000
  15364 WAT       -36.4320  -68.9160   -8.8330 O         1 <0>         0.0000
  15365 WAT       -36.4320  -68.9160   -8.5830 O         1 <0>         0.0000
  15366 WAT       -36.4320  -68.9160   -8.3330 O         1 <0>         0.0000
  15367 WAT       -36.4320  -68.9160   -8.0830 O         1 <0>         0.0000
  15368 WAT       -36.4320  -68.9160   -7.8330 O         1 <0>         0.0000
  15369 WAT       -36.4320  -68.9160   -7.5830 O         1 <0>         0.0000
  15370 WAT       -36.4320  -68.9160   -7.3330 O         1 <0>         0.0000
  15371 WAT       -36.4320  -68.9160   -7.0830 O         1 <0>         0.0000
  15372 WAT       -36.4320  -68.9160   -6.8330 O         1 <0>         0.0000
  15373 WAT       -36.4320  -68.9160   -6.5830 O         1 <0>         0.0000
  15374 WAT       -36.4320  -68.9160   -6.3330 O         1 <0>         0.0000
  15375 WAT       -36.4320  -68.9160   -6.0830 O         1 <0>         0.0000
  15376 WAT       -36.4320  -68.9160   -5.8330 O         1 <0>         0.0000
  15377 WAT       -36.4320  -68.9160   -5.5830 O         1 <0>         0.0000
  15378 WAT       -36.4320  -68.9160   -5.3330 O         1 <0>         0.0000
  15379 WAT       -36.4320  -68.9160   -5.0830 O         1 <0>         0.0000
  15380 WAT       -36.4320  -68.9160   -4.8330 O         1 <0>         0.0000
  15381 WAT       -36.4320  -68.9160   -4.5830 O         1 <0>         0.0000
  15382 WAT       -36.4320  -68.9160   -4.3330 O         1 <0>         0.0000
  15383 WAT       -36.4320  -68.9160   -4.0830 O         1 <0>         0.0000
  15384 WAT       -36.4320  -68.9160   -3.8330 O         1 <0>         0.0000
  15385 WAT       -36.4320  -68.9160   -3.5830 O         1 <0>         0.0000
  15386 WAT       -36.4320  -68.9160   -3.3330 O         1 <0>         0.0000
  15387 WAT       -36.4320  -68.9160   -3.0830 O         1 <0>         0.0000
  15388 WAT       -36.4320  -68.9160   -2.8330 O         1 <0>         0.0000
  15389 WAT       -36.4320  -68.9160   -2.5830 O         1 <0>         0.0000
  15390 WAT       -36.4320  -68.9160   -2.3330 O         1 <0>         0.0000
  15391 WAT       -36.4320  -68.9160   -2.0830 O         1 <0>         0.0000
  15392 WAT       -36.4320  -68.9160   -1.8330 O         1 <0>         0.0000
  15393 WAT       -36.4320  -68.9160   -1.5830 O         1 <0>         0.0000
  15394 WAT       -36.4320  -68.9160   -1.3330 O         1 <0>         0.0000
  15395 WAT       -36.4320  -68.9160   -1.0830 O         1 <0>         0.0000
  15396 WAT       -36.4320  -68.9160   -0.8330 O         1 <0>         0.0000
  15397 WAT       -36.4320  -68.9160   -0.5830 O         1 <0>         0.0000
  15398 WAT       -36.4320  -68.9160   -0.3330 O         1 <0>         0.0000
  15399 WAT       -36.4320  -68.9160   -0.0830 O         1 <0>         0.0000
  15400 WAT       -36.1820  -77.4160   -9.8330 O         1 <0>         0.0000
  15401 WAT       -36.1820  -77.4160   -9.5830 O         1 <0>         0.0000
  15402 WAT       -36.1820  -77.4160   -9.3330 O         1 <0>         0.0000
  15403 WAT       -36.1820  -77.4160   -9.0830 O         1 <0>         0.0000
  15404 WAT       -36.1820  -77.4160   -8.8330 O         1 <0>         0.0000
  15405 WAT       -36.1820  -77.4160   -8.5830 O         1 <0>         0.0000
  15406 WAT       -36.1820  -77.4160   -8.3330 O         1 <0>         0.0000
  15407 WAT       -36.1820  -77.4160   -8.0830 O         1 <0>         0.0000
  15408 WAT       -36.1820  -77.4160   -7.8330 O         1 <0>         0.0000
  15409 WAT       -36.1820  -77.4160   -7.5830 O         1 <0>         0.0000
  15410 WAT       -36.1820  -77.4160   -7.3330 O         1 <0>         0.0000
  15411 WAT       -36.1820  -77.4160   -7.0830 O         1 <0>         0.0000
  15412 WAT       -36.1820  -77.4160   -6.8330 O         1 <0>         0.0000
  15413 WAT       -36.1820  -77.4160   -6.5830 O         1 <0>         0.0000
  15414 WAT       -36.1820  -77.4160   -6.3330 O         1 <0>         0.0000
  15415 WAT       -36.1820  -77.4160   -6.0830 O         1 <0>         0.0000
  15416 WAT       -36.1820  -77.4160   -5.8330 O         1 <0>         0.0000
  15417 WAT       -36.1820  -77.4160   -5.5830 O         1 <0>         0.0000
  15418 WAT       -36.1820  -77.4160   -5.3330 O         1 <0>         0.0000
  15419 WAT       -36.1820  -77.4160   -5.0830 O         1 <0>         0.0000
  15420 WAT       -36.1820  -77.4160   -4.8330 O         1 <0>         0.0000
  15421 WAT       -36.1820  -77.4160   -4.5830 O         1 <0>         0.0000
  15422 WAT       -36.1820  -77.4160   -4.3330 O         1 <0>         0.0000
  15423 WAT       -36.1820  -77.4160   -4.0830 O         1 <0>         0.0000
  15424 WAT       -36.1820  -77.4160   -3.8330 O         1 <0>         0.0000
  15425 WAT       -36.1820  -77.4160   -3.5830 O         1 <0>         0.0000
  15426 WAT       -36.1820  -77.4160   -3.3330 O         1 <0>         0.0000
  15427 WAT       -36.1820  -77.4160   -3.0830 O         1 <0>         0.0000
  15428 WAT       -36.1820  -77.4160   -2.8330 O         1 <0>         0.0000
  15429 WAT       -36.1820  -77.4160   -2.5830 O         1 <0>         0.0000
  15430 WAT       -36.1820  -77.4160   -2.3330 O         1 <0>         0.0000
  15431 WAT       -36.1820  -77.4160   -2.0830 O         1 <0>         0.0000
  15432 WAT       -36.1820  -77.4160   -1.8330 O         1 <0>         0.0000
  15433 WAT       -36.1820  -77.4160   -1.5830 O         1 <0>         0.0000
  15434 WAT       -36.1820  -77.4160   -1.3330 O         1 <0>         0.0000
  15435 WAT       -36.1820  -77.4160   -1.0830 O         1 <0>         0.0000
  15436 WAT       -36.1820  -77.4160   -0.8330 O         1 <0>         0.0000
  15437 WAT       -36.1820  -77.4160   -0.5830 O         1 <0>         0.0000
  15438 WAT       -36.1820  -77.4160   -0.3330 O         1 <0>         0.0000
  15439 WAT       -36.1820  -77.4160   -0.0830 O         1 <0>         0.0000
  15440 WAT       -36.1820  -77.1660   -9.8330 O         1 <0>         0.0000
  15441 WAT       -36.1820  -77.1660   -9.5830 O         1 <0>         0.0000
  15442 WAT       -36.1820  -77.1660   -9.3330 O         1 <0>         0.0000
  15443 WAT       -36.1820  -77.1660   -9.0830 O         1 <0>         0.0000
  15444 WAT       -36.1820  -77.1660   -8.8330 O         1 <0>         0.0000
  15445 WAT       -36.1820  -77.1660   -8.5830 O         1 <0>         0.0000
  15446 WAT       -36.1820  -77.1660   -8.3330 O         1 <0>         0.0000
  15447 WAT       -36.1820  -77.1660   -8.0830 O         1 <0>         0.0000
  15448 WAT       -36.1820  -77.1660   -7.8330 O         1 <0>         0.0000
  15449 WAT       -36.1820  -77.1660   -7.5830 O         1 <0>         0.0000
  15450 WAT       -36.1820  -77.1660   -7.3330 O         1 <0>         0.0000
  15451 WAT       -36.1820  -77.1660   -7.0830 O         1 <0>         0.0000
  15452 WAT       -36.1820  -77.1660   -6.8330 O         1 <0>         0.0000
  15453 WAT       -36.1820  -77.1660   -6.5830 O         1 <0>         0.0000
  15454 WAT       -36.1820  -77.1660   -6.3330 O         1 <0>         0.0000
  15455 WAT       -36.1820  -77.1660   -6.0830 O         1 <0>         0.0000
  15456 WAT       -36.1820  -77.1660   -5.8330 O         1 <0>         0.0000
  15457 WAT       -36.1820  -77.1660   -5.5830 O         1 <0>         0.0000
  15458 WAT       -36.1820  -77.1660   -5.3330 O         1 <0>         0.0000
  15459 WAT       -36.1820  -77.1660   -5.0830 O         1 <0>         0.0000
  15460 WAT       -36.1820  -77.1660   -4.8330 O         1 <0>         0.0000
  15461 WAT       -36.1820  -77.1660   -4.5830 O         1 <0>         0.0000
  15462 WAT       -36.1820  -77.1660   -4.3330 O         1 <0>         0.0000
  15463 WAT       -36.1820  -77.1660   -4.0830 O         1 <0>         0.0000
  15464 WAT       -36.1820  -77.1660   -3.8330 O         1 <0>         0.0000
  15465 WAT       -36.1820  -77.1660   -3.5830 O         1 <0>         0.0000
  15466 WAT       -36.1820  -77.1660   -3.3330 O         1 <0>         0.0000
  15467 WAT       -36.1820  -77.1660   -3.0830 O         1 <0>         0.0000
  15468 WAT       -36.1820  -77.1660   -2.8330 O         1 <0>         0.0000
  15469 WAT       -36.1820  -77.1660   -2.5830 O         1 <0>         0.0000
  15470 WAT       -36.1820  -77.1660   -2.3330 O         1 <0>         0.0000
  15471 WAT       -36.1820  -77.1660   -2.0830 O         1 <0>         0.0000
  15472 WAT       -36.1820  -77.1660   -1.8330 O         1 <0>         0.0000
  15473 WAT       -36.1820  -77.1660   -1.5830 O         1 <0>         0.0000
  15474 WAT       -36.1820  -77.1660   -1.3330 O         1 <0>         0.0000
  15475 WAT       -36.1820  -77.1660   -1.0830 O         1 <0>         0.0000
  15476 WAT       -36.1820  -77.1660   -0.8330 O         1 <0>         0.0000
  15477 WAT       -36.1820  -77.1660   -0.5830 O         1 <0>         0.0000
  15478 WAT       -36.1820  -77.1660   -0.3330 O         1 <0>         0.0000
  15479 WAT       -36.1820  -77.1660   -0.0830 O         1 <0>         0.0000
  15480 WAT       -36.1820  -76.9160   -9.8330 O         1 <0>         0.0000
  15481 WAT       -36.1820  -76.9160   -9.5830 O         1 <0>         0.0000
  15482 WAT       -36.1820  -76.9160   -9.3330 O         1 <0>         0.0000
  15483 WAT       -36.1820  -76.9160   -9.0830 O         1 <0>         0.0000
  15484 WAT       -36.1820  -76.9160   -8.8330 O         1 <0>         0.0000
  15485 WAT       -36.1820  -76.9160   -8.5830 O         1 <0>         0.0000
  15486 WAT       -36.1820  -76.9160   -8.3330 O         1 <0>         0.0000
  15487 WAT       -36.1820  -76.9160   -8.0830 O         1 <0>         0.0000
  15488 WAT       -36.1820  -76.9160   -7.8330 O         1 <0>         0.0000
  15489 WAT       -36.1820  -76.9160   -7.5830 O         1 <0>         0.0000
  15490 WAT       -36.1820  -76.9160   -7.3330 O         1 <0>         0.0000
  15491 WAT       -36.1820  -76.9160   -7.0830 O         1 <0>         0.0000
  15492 WAT       -36.1820  -76.9160   -6.8330 O         1 <0>         0.0000
  15493 WAT       -36.1820  -76.9160   -6.5830 O         1 <0>         0.0000
  15494 WAT       -36.1820  -76.9160   -6.3330 O         1 <0>         0.0000
  15495 WAT       -36.1820  -76.9160   -6.0830 O         1 <0>         0.0000
  15496 WAT       -36.1820  -76.9160   -5.8330 O         1 <0>         0.0000
  15497 WAT       -36.1820  -76.9160   -5.5830 O         1 <0>         0.0000
  15498 WAT       -36.1820  -76.9160   -5.3330 O         1 <0>         0.0000
  15499 WAT       -36.1820  -76.9160   -5.0830 O         1 <0>         0.0000
  15500 WAT       -36.1820  -76.9160   -4.8330 O         1 <0>         0.0000
  15501 WAT       -36.1820  -76.9160   -4.5830 O         1 <0>         0.0000
  15502 WAT       -36.1820  -76.9160   -4.3330 O         1 <0>         0.0000
  15503 WAT       -36.1820  -76.9160   -4.0830 O         1 <0>         0.0000
  15504 WAT       -36.1820  -76.9160   -3.8330 O         1 <0>         0.0000
  15505 WAT       -36.1820  -76.9160   -3.5830 O         1 <0>         0.0000
  15506 WAT       -36.1820  -76.9160   -3.3330 O         1 <0>         0.0000
  15507 WAT       -36.1820  -76.9160   -3.0830 O         1 <0>         0.0000
  15508 WAT       -36.1820  -76.9160   -2.8330 O         1 <0>         0.0000
  15509 WAT       -36.1820  -76.9160   -2.5830 O         1 <0>         0.0000
  15510 WAT       -36.1820  -76.9160   -2.3330 O         1 <0>         0.0000
  15511 WAT       -36.1820  -76.9160   -2.0830 O         1 <0>         0.0000
  15512 WAT       -36.1820  -76.9160   -1.8330 O         1 <0>         0.0000
  15513 WAT       -36.1820  -76.9160   -1.5830 O         1 <0>         0.0000
  15514 WAT       -36.1820  -76.9160   -1.3330 O         1 <0>         0.0000
  15515 WAT       -36.1820  -76.9160   -1.0830 O         1 <0>         0.0000
  15516 WAT       -36.1820  -76.9160   -0.8330 O         1 <0>         0.0000
  15517 WAT       -36.1820  -76.9160   -0.5830 O         1 <0>         0.0000
  15518 WAT       -36.1820  -76.9160   -0.3330 O         1 <0>         0.0000
  15519 WAT       -36.1820  -76.9160   -0.0830 O         1 <0>         0.0000
  15520 WAT       -36.1820  -76.6660   -9.8330 O         1 <0>         0.0000
  15521 WAT       -36.1820  -76.6660   -9.5830 O         1 <0>         0.0000
  15522 WAT       -36.1820  -76.6660   -9.3330 O         1 <0>         0.0000
  15523 WAT       -36.1820  -76.6660   -9.0830 O         1 <0>         0.0000
  15524 WAT       -36.1820  -76.6660   -8.8330 O         1 <0>         0.0000
  15525 WAT       -36.1820  -76.6660   -8.5830 O         1 <0>         0.0000
  15526 WAT       -36.1820  -76.6660   -8.3330 O         1 <0>         0.0000
  15527 WAT       -36.1820  -76.6660   -8.0830 O         1 <0>         0.0000
  15528 WAT       -36.1820  -76.6660   -7.8330 O         1 <0>         0.0000
  15529 WAT       -36.1820  -76.6660   -7.5830 O         1 <0>         0.0000
  15530 WAT       -36.1820  -76.6660   -7.3330 O         1 <0>         0.0000
  15531 WAT       -36.1820  -76.6660   -7.0830 O         1 <0>         0.0000
  15532 WAT       -36.1820  -76.6660   -6.8330 O         1 <0>         0.0000
  15533 WAT       -36.1820  -76.6660   -6.5830 O         1 <0>         0.0000
  15534 WAT       -36.1820  -76.6660   -6.3330 O         1 <0>         0.0000
  15535 WAT       -36.1820  -76.6660   -6.0830 O         1 <0>         0.0000
  15536 WAT       -36.1820  -76.6660   -5.8330 O         1 <0>         0.0000
  15537 WAT       -36.1820  -76.6660   -5.5830 O         1 <0>         0.0000
  15538 WAT       -36.1820  -76.6660   -5.3330 O         1 <0>         0.0000
  15539 WAT       -36.1820  -76.6660   -5.0830 O         1 <0>         0.0000
  15540 WAT       -36.1820  -76.6660   -4.8330 O         1 <0>         0.0000
  15541 WAT       -36.1820  -76.6660   -4.5830 O         1 <0>         0.0000
  15542 WAT       -36.1820  -76.6660   -4.3330 O         1 <0>         0.0000
  15543 WAT       -36.1820  -76.6660   -4.0830 O         1 <0>         0.0000
  15544 WAT       -36.1820  -76.6660   -3.8330 O         1 <0>         0.0000
  15545 WAT       -36.1820  -76.6660   -3.5830 O         1 <0>         0.0000
  15546 WAT       -36.1820  -76.6660   -3.3330 O         1 <0>         0.0000
  15547 WAT       -36.1820  -76.6660   -3.0830 O         1 <0>         0.0000
  15548 WAT       -36.1820  -76.6660   -2.8330 O         1 <0>         0.0000
  15549 WAT       -36.1820  -76.6660   -2.5830 O         1 <0>         0.0000
  15550 WAT       -36.1820  -76.6660   -2.3330 O         1 <0>         0.0000
  15551 WAT       -36.1820  -76.6660   -2.0830 O         1 <0>         0.0000
  15552 WAT       -36.1820  -76.6660   -1.8330 O         1 <0>         0.0000
  15553 WAT       -36.1820  -76.6660   -1.5830 O         1 <0>         0.0000
  15554 WAT       -36.1820  -76.6660   -1.3330 O         1 <0>         0.0000
  15555 WAT       -36.1820  -76.6660   -1.0830 O         1 <0>         0.0000
  15556 WAT       -36.1820  -76.6660   -0.8330 O         1 <0>         0.0000
  15557 WAT       -36.1820  -76.6660   -0.5830 O         1 <0>         0.0000
  15558 WAT       -36.1820  -76.6660   -0.3330 O         1 <0>         0.0000
  15559 WAT       -36.1820  -76.6660   -0.0830 O         1 <0>         0.0000
  15560 WAT       -36.1820  -76.4160   -9.8330 O         1 <0>         0.0000
  15561 WAT       -36.1820  -76.4160   -9.5830 O         1 <0>         0.0000
  15562 WAT       -36.1820  -76.4160   -9.3330 O         1 <0>         0.0000
  15563 WAT       -36.1820  -76.4160   -9.0830 O         1 <0>         0.0000
  15564 WAT       -36.1820  -76.4160   -8.8330 O         1 <0>         0.0000
  15565 WAT       -36.1820  -76.4160   -8.5830 O         1 <0>         0.0000
  15566 WAT       -36.1820  -76.4160   -8.3330 O         1 <0>         0.0000
  15567 WAT       -36.1820  -76.4160   -8.0830 O         1 <0>         0.0000
  15568 WAT       -36.1820  -76.4160   -7.8330 O         1 <0>         0.0000
  15569 WAT       -36.1820  -76.4160   -7.5830 O         1 <0>         0.0000
  15570 WAT       -36.1820  -76.4160   -7.3330 O         1 <0>         0.0000
  15571 WAT       -36.1820  -76.4160   -7.0830 O         1 <0>         0.0000
  15572 WAT       -36.1820  -76.4160   -6.8330 O         1 <0>         0.0000
  15573 WAT       -36.1820  -76.4160   -6.5830 O         1 <0>         0.0000
  15574 WAT       -36.1820  -76.4160   -6.3330 O         1 <0>         0.0000
  15575 WAT       -36.1820  -76.4160   -6.0830 O         1 <0>         0.0000
  15576 WAT       -36.1820  -76.4160   -5.8330 O         1 <0>         0.0000
  15577 WAT       -36.1820  -76.4160   -5.5830 O         1 <0>         0.0000
  15578 WAT       -36.1820  -76.4160   -5.3330 O         1 <0>         0.0000
  15579 WAT       -36.1820  -76.4160   -5.0830 O         1 <0>         0.0000
  15580 WAT       -36.1820  -76.4160   -4.8330 O         1 <0>         0.0000
  15581 WAT       -36.1820  -76.4160   -4.5830 O         1 <0>         0.0000
  15582 WAT       -36.1820  -76.4160   -4.3330 O         1 <0>         0.0000
  15583 WAT       -36.1820  -76.4160   -4.0830 O         1 <0>         0.0000
  15584 WAT       -36.1820  -76.4160   -3.8330 O         1 <0>         0.0000
  15585 WAT       -36.1820  -76.4160   -3.5830 O         1 <0>         0.0000
  15586 WAT       -36.1820  -76.4160   -3.3330 O         1 <0>         0.0000
  15587 WAT       -36.1820  -76.4160   -3.0830 O         1 <0>         0.0000
  15588 WAT       -36.1820  -76.4160   -2.8330 O         1 <0>         0.0000
  15589 WAT       -36.1820  -76.4160   -2.5830 O         1 <0>         0.0000
  15590 WAT       -36.1820  -76.4160   -2.3330 O         1 <0>         0.0000
  15591 WAT       -36.1820  -76.4160   -2.0830 O         1 <0>         0.0000
  15592 WAT       -36.1820  -76.4160   -1.8330 O         1 <0>         0.0000
  15593 WAT       -36.1820  -76.4160   -1.5830 O         1 <0>         0.0000
  15594 WAT       -36.1820  -76.4160   -1.3330 O         1 <0>         0.0000
  15595 WAT       -36.1820  -76.4160   -1.0830 O         1 <0>         0.0000
  15596 WAT       -36.1820  -76.4160   -0.8330 O         1 <0>         0.0000
  15597 WAT       -36.1820  -76.4160   -0.5830 O         1 <0>         0.0000
  15598 WAT       -36.1820  -76.4160   -0.3330 O         1 <0>         0.0000
  15599 WAT       -36.1820  -76.4160   -0.0830 O         1 <0>         0.0000
  15600 WAT       -36.1820  -76.1660   -9.8330 O         1 <0>         0.0000
  15601 WAT       -36.1820  -76.1660   -9.5830 O         1 <0>         0.0000
  15602 WAT       -36.1820  -76.1660   -9.3330 O         1 <0>         0.0000
  15603 WAT       -36.1820  -76.1660   -9.0830 O         1 <0>         0.0000
  15604 WAT       -36.1820  -76.1660   -8.8330 O         1 <0>         0.0000
  15605 WAT       -36.1820  -76.1660   -8.5830 O         1 <0>         0.0000
  15606 WAT       -36.1820  -76.1660   -8.3330 O         1 <0>         0.0000
  15607 WAT       -36.1820  -76.1660   -8.0830 O         1 <0>         0.0000
  15608 WAT       -36.1820  -76.1660   -7.8330 O         1 <0>         0.0000
  15609 WAT       -36.1820  -76.1660   -7.5830 O         1 <0>         0.0000
  15610 WAT       -36.1820  -76.1660   -7.3330 O         1 <0>         0.0000
  15611 WAT       -36.1820  -76.1660   -7.0830 O         1 <0>         0.0000
  15612 WAT       -36.1820  -76.1660   -6.8330 O         1 <0>         0.0000
  15613 WAT       -36.1820  -76.1660   -6.5830 O         1 <0>         0.0000
  15614 WAT       -36.1820  -76.1660   -6.3330 O         1 <0>         0.0000
  15615 WAT       -36.1820  -76.1660   -6.0830 O         1 <0>         0.0000
  15616 WAT       -36.1820  -76.1660   -5.8330 O         1 <0>         0.0000
  15617 WAT       -36.1820  -76.1660   -5.5830 O         1 <0>         0.0000
  15618 WAT       -36.1820  -76.1660   -5.3330 O         1 <0>         0.0000
  15619 WAT       -36.1820  -76.1660   -5.0830 O         1 <0>         0.0000
  15620 WAT       -36.1820  -76.1660   -4.8330 O         1 <0>         0.0000
  15621 WAT       -36.1820  -76.1660   -4.5830 O         1 <0>         0.0000
  15622 WAT       -36.1820  -76.1660   -4.3330 O         1 <0>         0.0000
  15623 WAT       -36.1820  -76.1660   -4.0830 O         1 <0>         0.0000
  15624 WAT       -36.1820  -76.1660   -3.8330 O         1 <0>         0.0000
  15625 WAT       -36.1820  -76.1660   -3.5830 O         1 <0>         0.0000
  15626 WAT       -36.1820  -76.1660   -3.3330 O         1 <0>         0.0000
  15627 WAT       -36.1820  -76.1660   -3.0830 O         1 <0>         0.0000
  15628 WAT       -36.1820  -76.1660   -2.8330 O         1 <0>         0.0000
  15629 WAT       -36.1820  -76.1660   -2.5830 O         1 <0>         0.0000
  15630 WAT       -36.1820  -76.1660   -2.3330 O         1 <0>         0.0000
  15631 WAT       -36.1820  -76.1660   -2.0830 O         1 <0>         0.0000
  15632 WAT       -36.1820  -76.1660   -1.8330 O         1 <0>         0.0000
  15633 WAT       -36.1820  -76.1660   -1.5830 O         1 <0>         0.0000
  15634 WAT       -36.1820  -76.1660   -1.3330 O         1 <0>         0.0000
  15635 WAT       -36.1820  -76.1660   -1.0830 O         1 <0>         0.0000
  15636 WAT       -36.1820  -76.1660   -0.8330 O         1 <0>         0.0000
  15637 WAT       -36.1820  -76.1660   -0.5830 O         1 <0>         0.0000
  15638 WAT       -36.1820  -76.1660   -0.3330 O         1 <0>         0.0000
  15639 WAT       -36.1820  -76.1660   -0.0830 O         1 <0>         0.0000
  15640 WAT       -36.1820  -75.9160   -9.8330 O         1 <0>         0.0000
  15641 WAT       -36.1820  -75.9160   -9.5830 O         1 <0>         0.0000
  15642 WAT       -36.1820  -75.9160   -9.3330 O         1 <0>         0.0000
  15643 WAT       -36.1820  -75.9160   -9.0830 O         1 <0>         0.0000
  15644 WAT       -36.1820  -75.9160   -8.8330 O         1 <0>         0.0000
  15645 WAT       -36.1820  -75.9160   -8.5830 O         1 <0>         0.0000
  15646 WAT       -36.1820  -75.9160   -8.3330 O         1 <0>         0.0000
  15647 WAT       -36.1820  -75.9160   -8.0830 O         1 <0>         0.0000
  15648 WAT       -36.1820  -75.9160   -7.8330 O         1 <0>         0.0000
  15649 WAT       -36.1820  -75.9160   -7.5830 O         1 <0>         0.0000
  15650 WAT       -36.1820  -75.9160   -7.3330 O         1 <0>         0.0000
  15651 WAT       -36.1820  -75.9160   -7.0830 O         1 <0>         0.0000
  15652 WAT       -36.1820  -75.9160   -6.8330 O         1 <0>         0.0000
  15653 WAT       -36.1820  -75.9160   -6.5830 O         1 <0>         0.0000
  15654 WAT       -36.1820  -75.9160   -6.3330 O         1 <0>         0.0000
  15655 WAT       -36.1820  -75.9160   -6.0830 O         1 <0>         0.0000
  15656 WAT       -36.1820  -75.9160   -5.8330 O         1 <0>         0.0000
  15657 WAT       -36.1820  -75.9160   -5.5830 O         1 <0>         0.0000
  15658 WAT       -36.1820  -75.9160   -5.3330 O         1 <0>         0.0000
  15659 WAT       -36.1820  -75.9160   -5.0830 O         1 <0>         0.0000
  15660 WAT       -36.1820  -75.9160   -4.8330 O         1 <0>         0.0000
  15661 WAT       -36.1820  -75.9160   -4.5830 O         1 <0>         0.0000
  15662 WAT       -36.1820  -75.9160   -4.3330 O         1 <0>         0.0000
  15663 WAT       -36.1820  -75.9160   -4.0830 O         1 <0>         0.0000
  15664 WAT       -36.1820  -75.9160   -3.8330 O         1 <0>         0.0000
  15665 WAT       -36.1820  -75.9160   -3.5830 O         1 <0>         0.0000
  15666 WAT       -36.1820  -75.9160   -3.3330 O         1 <0>         0.0000
  15667 WAT       -36.1820  -75.9160   -3.0830 O         1 <0>         0.0000
  15668 WAT       -36.1820  -75.9160   -2.8330 O         1 <0>         0.0000
  15669 WAT       -36.1820  -75.9160   -2.5830 O         1 <0>         0.0000
  15670 WAT       -36.1820  -75.9160   -2.3330 O         1 <0>         0.0000
  15671 WAT       -36.1820  -75.9160   -2.0830 O         1 <0>         0.0000
  15672 WAT       -36.1820  -75.9160   -1.8330 O         1 <0>         0.0000
  15673 WAT       -36.1820  -75.9160   -1.5830 O         1 <0>         0.0000
  15674 WAT       -36.1820  -75.9160   -1.3330 O         1 <0>         0.0000
  15675 WAT       -36.1820  -75.9160   -1.0830 O         1 <0>         0.0000
  15676 WAT       -36.1820  -75.9160   -0.8330 O         1 <0>         0.0000
  15677 WAT       -36.1820  -75.9160   -0.5830 O         1 <0>         0.0000
  15678 WAT       -36.1820  -75.9160   -0.3330 O         1 <0>         0.0000
  15679 WAT       -36.1820  -75.9160   -0.0830 O         1 <0>         0.0000
  15680 WAT       -36.1820  -75.6660   -9.8330 O         1 <0>         0.0000
  15681 WAT       -36.1820  -75.6660   -9.5830 O         1 <0>         0.0000
  15682 WAT       -36.1820  -75.6660   -9.3330 O         1 <0>         0.0000
  15683 WAT       -36.1820  -75.6660   -9.0830 O         1 <0>         0.0000
  15684 WAT       -36.1820  -75.6660   -8.8330 O         1 <0>         0.0000
  15685 WAT       -36.1820  -75.6660   -8.5830 O         1 <0>         0.0000
  15686 WAT       -36.1820  -75.6660   -8.3330 O         1 <0>         0.0000
  15687 WAT       -36.1820  -75.6660   -8.0830 O         1 <0>         0.0000
  15688 WAT       -36.1820  -75.6660   -7.8330 O         1 <0>         0.0000
  15689 WAT       -36.1820  -75.6660   -7.5830 O         1 <0>         0.0000
  15690 WAT       -36.1820  -75.6660   -7.3330 O         1 <0>         0.0000
  15691 WAT       -36.1820  -75.6660   -7.0830 O         1 <0>         0.0000
  15692 WAT       -36.1820  -75.6660   -6.8330 O         1 <0>         0.0000
  15693 WAT       -36.1820  -75.6660   -6.5830 O         1 <0>         0.0000
  15694 WAT       -36.1820  -75.6660   -6.3330 O         1 <0>         0.0000
  15695 WAT       -36.1820  -75.6660   -6.0830 O         1 <0>         0.0000
  15696 WAT       -36.1820  -75.6660   -5.8330 O         1 <0>         0.0000
  15697 WAT       -36.1820  -75.6660   -5.5830 O         1 <0>         0.0001
  15698 WAT       -36.1820  -75.6660   -5.3330 O         1 <0>         0.0001
  15699 WAT       -36.1820  -75.6660   -5.0830 O         1 <0>         0.0001
  15700 WAT       -36.1820  -75.6660   -4.8330 O         1 <0>         0.0001
  15701 WAT       -36.1820  -75.6660   -4.5830 O         1 <0>         0.0001
  15702 WAT       -36.1820  -75.6660   -4.3330 O         1 <0>         0.0001
  15703 WAT       -36.1820  -75.6660   -4.0830 O         1 <0>         0.0002
  15704 WAT       -36.1820  -75.6660   -3.8330 O         1 <0>         0.0003
  15705 WAT       -36.1820  -75.6660   -3.5830 O         1 <0>         0.0002
  15706 WAT       -36.1820  -75.6660   -3.3330 O         1 <0>         0.0001
  15707 WAT       -36.1820  -75.6660   -3.0830 O         1 <0>         0.0000
  15708 WAT       -36.1820  -75.6660   -2.8330 O         1 <0>         0.0000
  15709 WAT       -36.1820  -75.6660   -2.5830 O         1 <0>         0.0000
  15710 WAT       -36.1820  -75.6660   -2.3330 O         1 <0>         0.0000
  15711 WAT       -36.1820  -75.6660   -2.0830 O         1 <0>         0.0000
  15712 WAT       -36.1820  -75.6660   -1.8330 O         1 <0>         0.0000
  15713 WAT       -36.1820  -75.6660   -1.5830 O         1 <0>         0.0000
  15714 WAT       -36.1820  -75.6660   -1.3330 O         1 <0>         0.0000
  15715 WAT       -36.1820  -75.6660   -1.0830 O         1 <0>         0.0000
  15716 WAT       -36.1820  -75.6660   -0.8330 O         1 <0>         0.0000
  15717 WAT       -36.1820  -75.6660   -0.5830 O         1 <0>         0.0000
  15718 WAT       -36.1820  -75.6660   -0.3330 O         1 <0>         0.0000
  15719 WAT       -36.1820  -75.6660   -0.0830 O         1 <0>         0.0000
  15720 WAT       -36.1820  -75.4160   -9.8330 O         1 <0>         0.0000
  15721 WAT       -36.1820  -75.4160   -9.5830 O         1 <0>         0.0000
  15722 WAT       -36.1820  -75.4160   -9.3330 O         1 <0>         0.0000
  15723 WAT       -36.1820  -75.4160   -9.0830 O         1 <0>         0.0000
  15724 WAT       -36.1820  -75.4160   -8.8330 O         1 <0>         0.0000
  15725 WAT       -36.1820  -75.4160   -8.5830 O         1 <0>         0.0000
  15726 WAT       -36.1820  -75.4160   -8.3330 O         1 <0>         0.0000
  15727 WAT       -36.1820  -75.4160   -8.0830 O         1 <0>         0.0000
  15728 WAT       -36.1820  -75.4160   -7.8330 O         1 <0>         0.0000
  15729 WAT       -36.1820  -75.4160   -7.5830 O         1 <0>         0.0000
  15730 WAT       -36.1820  -75.4160   -7.3330 O         1 <0>         0.0000
  15731 WAT       -36.1820  -75.4160   -7.0830 O         1 <0>         0.0000
  15732 WAT       -36.1820  -75.4160   -6.8330 O         1 <0>         0.0000
  15733 WAT       -36.1820  -75.4160   -6.5830 O         1 <0>         0.0000
  15734 WAT       -36.1820  -75.4160   -6.3330 O         1 <0>         0.0000
  15735 WAT       -36.1820  -75.4160   -6.0830 O         1 <0>         0.0001
  15736 WAT       -36.1820  -75.4160   -5.8330 O         1 <0>         0.0002
  15737 WAT       -36.1820  -75.4160   -5.5830 O         1 <0>         0.0005
  15738 WAT       -36.1820  -75.4160   -5.3330 O         1 <0>         0.0007
  15739 WAT       -36.1820  -75.4160   -5.0830 O         1 <0>         0.0008
  15740 WAT       -36.1820  -75.4160   -4.8330 O         1 <0>         0.0008
  15741 WAT       -36.1820  -75.4160   -4.5830 O         1 <0>         0.0009
  15742 WAT       -36.1820  -75.4160   -4.3330 O         1 <0>         0.0010
  15743 WAT       -36.1820  -75.4160   -4.0830 O         1 <0>         0.0013
  15744 WAT       -36.1820  -75.4160   -3.8330 O         1 <0>         0.0016
  15745 WAT       -36.1820  -75.4160   -3.5830 O         1 <0>         0.0015
  15746 WAT       -36.1820  -75.4160   -3.3330 O         1 <0>         0.0010
  15747 WAT       -36.1820  -75.4160   -3.0830 O         1 <0>         0.0004
  15748 WAT       -36.1820  -75.4160   -2.8330 O         1 <0>         0.0001
  15749 WAT       -36.1820  -75.4160   -2.5830 O         1 <0>         0.0000
  15750 WAT       -36.1820  -75.4160   -2.3330 O         1 <0>         0.0000
  15751 WAT       -36.1820  -75.4160   -2.0830 O         1 <0>         0.0000
  15752 WAT       -36.1820  -75.4160   -1.8330 O         1 <0>         0.0000
  15753 WAT       -36.1820  -75.4160   -1.5830 O         1 <0>         0.0000
  15754 WAT       -36.1820  -75.4160   -1.3330 O         1 <0>         0.0000
  15755 WAT       -36.1820  -75.4160   -1.0830 O         1 <0>         0.0000
  15756 WAT       -36.1820  -75.4160   -0.8330 O         1 <0>         0.0000
  15757 WAT       -36.1820  -75.4160   -0.5830 O         1 <0>         0.0000
  15758 WAT       -36.1820  -75.4160   -0.3330 O         1 <0>         0.0000
  15759 WAT       -36.1820  -75.4160   -0.0830 O         1 <0>         0.0000
  15760 WAT       -36.1820  -75.1660   -9.8330 O         1 <0>         0.0000
  15761 WAT       -36.1820  -75.1660   -9.5830 O         1 <0>         0.0000
  15762 WAT       -36.1820  -75.1660   -9.3330 O         1 <0>         0.0000
  15763 WAT       -36.1820  -75.1660   -9.0830 O         1 <0>         0.0000
  15764 WAT       -36.1820  -75.1660   -8.8330 O         1 <0>         0.0000
  15765 WAT       -36.1820  -75.1660   -8.5830 O         1 <0>         0.0000
  15766 WAT       -36.1820  -75.1660   -8.3330 O         1 <0>         0.0000
  15767 WAT       -36.1820  -75.1660   -8.0830 O         1 <0>         0.0000
  15768 WAT       -36.1820  -75.1660   -7.8330 O         1 <0>         0.0000
  15769 WAT       -36.1820  -75.1660   -7.5830 O         1 <0>         0.0000
  15770 WAT       -36.1820  -75.1660   -7.3330 O         1 <0>         0.0000
  15771 WAT       -36.1820  -75.1660   -7.0830 O         1 <0>         0.0000
  15772 WAT       -36.1820  -75.1660   -6.8330 O         1 <0>         0.0000
  15773 WAT       -36.1820  -75.1660   -6.5830 O         1 <0>         0.0001
  15774 WAT       -36.1820  -75.1660   -6.3330 O         1 <0>         0.0004
  15775 WAT       -36.1820  -75.1660   -6.0830 O         1 <0>         0.0010
  15776 WAT       -36.1820  -75.1660   -5.8330 O         1 <0>         0.0017
  15777 WAT       -36.1820  -75.1660   -5.5830 O         1 <0>         0.0025
  15778 WAT       -36.1820  -75.1660   -5.3330 O         1 <0>         0.0032
  15779 WAT       -36.1820  -75.1660   -5.0830 O         1 <0>         0.0037
  15780 WAT       -36.1820  -75.1660   -4.8330 O         1 <0>         0.0038
  15781 WAT       -36.1820  -75.1660   -4.5830 O         1 <0>         0.0038
  15782 WAT       -36.1820  -75.1660   -4.3330 O         1 <0>         0.0041
  15783 WAT       -36.1820  -75.1660   -4.0830 O         1 <0>         0.0049
  15784 WAT       -36.1820  -75.1660   -3.8330 O         1 <0>         0.0058
  15785 WAT       -36.1820  -75.1660   -3.5830 O         1 <0>         0.0058
  15786 WAT       -36.1820  -75.1660   -3.3330 O         1 <0>         0.0042
  15787 WAT       -36.1820  -75.1660   -3.0830 O         1 <0>         0.0020
  15788 WAT       -36.1820  -75.1660   -2.8330 O         1 <0>         0.0005
  15789 WAT       -36.1820  -75.1660   -2.5830 O         1 <0>         0.0001
  15790 WAT       -36.1820  -75.1660   -2.3330 O         1 <0>         0.0000
  15791 WAT       -36.1820  -75.1660   -2.0830 O         1 <0>         0.0000
  15792 WAT       -36.1820  -75.1660   -1.8330 O         1 <0>         0.0000
  15793 WAT       -36.1820  -75.1660   -1.5830 O         1 <0>         0.0000
  15794 WAT       -36.1820  -75.1660   -1.3330 O         1 <0>         0.0000
  15795 WAT       -36.1820  -75.1660   -1.0830 O         1 <0>         0.0000
  15796 WAT       -36.1820  -75.1660   -0.8330 O         1 <0>         0.0000
  15797 WAT       -36.1820  -75.1660   -0.5830 O         1 <0>         0.0000
  15798 WAT       -36.1820  -75.1660   -0.3330 O         1 <0>         0.0000
  15799 WAT       -36.1820  -75.1660   -0.0830 O         1 <0>         0.0000
  15800 WAT       -36.1820  -74.9160   -9.8330 O         1 <0>         0.0000
  15801 WAT       -36.1820  -74.9160   -9.5830 O         1 <0>         0.0000
  15802 WAT       -36.1820  -74.9160   -9.3330 O         1 <0>         0.0000
  15803 WAT       -36.1820  -74.9160   -9.0830 O         1 <0>         0.0000
  15804 WAT       -36.1820  -74.9160   -8.8330 O         1 <0>         0.0000
  15805 WAT       -36.1820  -74.9160   -8.5830 O         1 <0>         0.0000
  15806 WAT       -36.1820  -74.9160   -8.3330 O         1 <0>         0.0000
  15807 WAT       -36.1820  -74.9160   -8.0830 O         1 <0>         0.0000
  15808 WAT       -36.1820  -74.9160   -7.8330 O         1 <0>         0.0000
  15809 WAT       -36.1820  -74.9160   -7.5830 O         1 <0>         0.0000
  15810 WAT       -36.1820  -74.9160   -7.3330 O         1 <0>         0.0000
  15811 WAT       -36.1820  -74.9160   -7.0830 O         1 <0>         0.0000
  15812 WAT       -36.1820  -74.9160   -6.8330 O         1 <0>         0.0002
  15813 WAT       -36.1820  -74.9160   -6.5830 O         1 <0>         0.0010
  15814 WAT       -36.1820  -74.9160   -6.3330 O         1 <0>         0.0028
  15815 WAT       -36.1820  -74.9160   -6.0830 O         1 <0>         0.0053
  15816 WAT       -36.1820  -74.9160   -5.8330 O         1 <0>         0.0078
  15817 WAT       -36.1820  -74.9160   -5.5830 O         1 <0>         0.0098
  15818 WAT       -36.1820  -74.9160   -5.3330 O         1 <0>         0.0111
  15819 WAT       -36.1820  -74.9160   -5.0830 O         1 <0>         0.0117
  15820 WAT       -36.1820  -74.9160   -4.8330 O         1 <0>         0.0116
  15821 WAT       -36.1820  -74.9160   -4.5830 O         1 <0>         0.0114
  15822 WAT       -36.1820  -74.9160   -4.3330 O         1 <0>         0.0116
  15823 WAT       -36.1820  -74.9160   -4.0830 O         1 <0>         0.0130
  15824 WAT       -36.1820  -74.9160   -3.8330 O         1 <0>         0.0151
  15825 WAT       -36.1820  -74.9160   -3.5830 O         1 <0>         0.0155
  15826 WAT       -36.1820  -74.9160   -3.3330 O         1 <0>         0.0121
  15827 WAT       -36.1820  -74.9160   -3.0830 O         1 <0>         0.0066
  15828 WAT       -36.1820  -74.9160   -2.8330 O         1 <0>         0.0023
  15829 WAT       -36.1820  -74.9160   -2.5830 O         1 <0>         0.0004
  15830 WAT       -36.1820  -74.9160   -2.3330 O         1 <0>         0.0000
  15831 WAT       -36.1820  -74.9160   -2.0830 O         1 <0>         0.0000
  15832 WAT       -36.1820  -74.9160   -1.8330 O         1 <0>         0.0000
  15833 WAT       -36.1820  -74.9160   -1.5830 O         1 <0>         0.0000
  15834 WAT       -36.1820  -74.9160   -1.3330 O         1 <0>         0.0000
  15835 WAT       -36.1820  -74.9160   -1.0830 O         1 <0>         0.0000
  15836 WAT       -36.1820  -74.9160   -0.8330 O         1 <0>         0.0000
  15837 WAT       -36.1820  -74.9160   -0.5830 O         1 <0>         0.0000
  15838 WAT       -36.1820  -74.9160   -0.3330 O         1 <0>         0.0000
  15839 WAT       -36.1820  -74.9160   -0.0830 O         1 <0>         0.0000
  15840 WAT       -36.1820  -74.6660   -9.8330 O         1 <0>         0.0000
  15841 WAT       -36.1820  -74.6660   -9.5830 O         1 <0>         0.0000
  15842 WAT       -36.1820  -74.6660   -9.3330 O         1 <0>         0.0000
  15843 WAT       -36.1820  -74.6660   -9.0830 O         1 <0>         0.0000
  15844 WAT       -36.1820  -74.6660   -8.8330 O         1 <0>         0.0000
  15845 WAT       -36.1820  -74.6660   -8.5830 O         1 <0>         0.0000
  15846 WAT       -36.1820  -74.6660   -8.3330 O         1 <0>         0.0000
  15847 WAT       -36.1820  -74.6660   -8.0830 O         1 <0>         0.0000
  15848 WAT       -36.1820  -74.6660   -7.8330 O         1 <0>         0.0000
  15849 WAT       -36.1820  -74.6660   -7.5830 O         1 <0>         0.0000
  15850 WAT       -36.1820  -74.6660   -7.3330 O         1 <0>         0.0000
  15851 WAT       -36.1820  -74.6660   -7.0830 O         1 <0>         0.0002
  15852 WAT       -36.1820  -74.6660   -6.8330 O         1 <0>         0.0011
  15853 WAT       -36.1820  -74.6660   -6.5830 O         1 <0>         0.0044
  15854 WAT       -36.1820  -74.6660   -6.3330 O         1 <0>         0.0110
  15855 WAT       -36.1820  -74.6660   -6.0830 O         1 <0>         0.0195
  15856 WAT       -36.1820  -74.6660   -5.8330 O         1 <0>         0.0260
  15857 WAT       -36.1820  -74.6660   -5.5830 O         1 <0>         0.0289
  15858 WAT       -36.1820  -74.6660   -5.3330 O         1 <0>         0.0293
  15859 WAT       -36.1820  -74.6660   -5.0830 O         1 <0>         0.0287
  15860 WAT       -36.1820  -74.6660   -4.8330 O         1 <0>         0.0273
  15861 WAT       -36.1820  -74.6660   -4.5830 O         1 <0>         0.0254
  15862 WAT       -36.1820  -74.6660   -4.3330 O         1 <0>         0.0245
  15863 WAT       -36.1820  -74.6660   -4.0830 O         1 <0>         0.0259
  15864 WAT       -36.1820  -74.6660   -3.8330 O         1 <0>         0.0294
  15865 WAT       -36.1820  -74.6660   -3.5830 O         1 <0>         0.0307
  15866 WAT       -36.1820  -74.6660   -3.3330 O         1 <0>         0.0254
  15867 WAT       -36.1820  -74.6660   -3.0830 O         1 <0>         0.0151
  15868 WAT       -36.1820  -74.6660   -2.8330 O         1 <0>         0.0059
  15869 WAT       -36.1820  -74.6660   -2.5830 O         1 <0>         0.0013
  15870 WAT       -36.1820  -74.6660   -2.3330 O         1 <0>         0.0001
  15871 WAT       -36.1820  -74.6660   -2.0830 O         1 <0>         0.0000
  15872 WAT       -36.1820  -74.6660   -1.8330 O         1 <0>         0.0000
  15873 WAT       -36.1820  -74.6660   -1.5830 O         1 <0>         0.0000
  15874 WAT       -36.1820  -74.6660   -1.3330 O         1 <0>         0.0000
  15875 WAT       -36.1820  -74.6660   -1.0830 O         1 <0>         0.0000
  15876 WAT       -36.1820  -74.6660   -0.8330 O         1 <0>         0.0000
  15877 WAT       -36.1820  -74.6660   -0.5830 O         1 <0>         0.0000
  15878 WAT       -36.1820  -74.6660   -0.3330 O         1 <0>         0.0000
  15879 WAT       -36.1820  -74.6660   -0.0830 O         1 <0>         0.0000
  15880 WAT       -36.1820  -74.4160   -9.8330 O         1 <0>         0.0000
  15881 WAT       -36.1820  -74.4160   -9.5830 O         1 <0>         0.0000
  15882 WAT       -36.1820  -74.4160   -9.3330 O         1 <0>         0.0000
  15883 WAT       -36.1820  -74.4160   -9.0830 O         1 <0>         0.0000
  15884 WAT       -36.1820  -74.4160   -8.8330 O         1 <0>         0.0000
  15885 WAT       -36.1820  -74.4160   -8.5830 O         1 <0>         0.0000
  15886 WAT       -36.1820  -74.4160   -8.3330 O         1 <0>         0.0000
  15887 WAT       -36.1820  -74.4160   -8.0830 O         1 <0>         0.0000
  15888 WAT       -36.1820  -74.4160   -7.8330 O         1 <0>         0.0000
  15889 WAT       -36.1820  -74.4160   -7.5830 O         1 <0>         0.0000
  15890 WAT       -36.1820  -74.4160   -7.3330 O         1 <0>         0.0001
  15891 WAT       -36.1820  -74.4160   -7.0830 O         1 <0>         0.0007
  15892 WAT       -36.1820  -74.4160   -6.8330 O         1 <0>         0.0039
  15893 WAT       -36.1820  -74.4160   -6.5830 O         1 <0>         0.0134
  15894 WAT       -36.1820  -74.4160   -6.3330 O         1 <0>         0.0315
  15895 WAT       -36.1820  -74.4160   -6.0830 O         1 <0>         0.0527
  15896 WAT       -36.1820  -74.4160   -5.8330 O         1 <0>         0.0661
  15897 WAT       -36.1820  -74.4160   -5.5830 O         1 <0>         0.0669
  15898 WAT       -36.1820  -74.4160   -5.3330 O         1 <0>         0.0610
  15899 WAT       -36.1820  -74.4160   -5.0830 O         1 <0>         0.0553
  15900 WAT       -36.1820  -74.4160   -4.8330 O         1 <0>         0.0498
  15901 WAT       -36.1820  -74.4160   -4.5830 O         1 <0>         0.0442
  15902 WAT       -36.1820  -74.4160   -4.3330 O         1 <0>         0.0402
  15903 WAT       -36.1820  -74.4160   -4.0830 O         1 <0>         0.0403
  15904 WAT       -36.1820  -74.4160   -3.8330 O         1 <0>         0.0442
  15905 WAT       -36.1820  -74.4160   -3.5830 O         1 <0>         0.0464
  15906 WAT       -36.1820  -74.4160   -3.3330 O         1 <0>         0.0398
  15907 WAT       -36.1820  -74.4160   -3.0830 O         1 <0>         0.0251
  15908 WAT       -36.1820  -74.4160   -2.8330 O         1 <0>         0.0107
  15909 WAT       -36.1820  -74.4160   -2.5830 O         1 <0>         0.0028
  15910 WAT       -36.1820  -74.4160   -2.3330 O         1 <0>         0.0003
  15911 WAT       -36.1820  -74.4160   -2.0830 O         1 <0>         0.0000
  15912 WAT       -36.1820  -74.4160   -1.8330 O         1 <0>         0.0000
  15913 WAT       -36.1820  -74.4160   -1.5830 O         1 <0>         0.0000
  15914 WAT       -36.1820  -74.4160   -1.3330 O         1 <0>         0.0000
  15915 WAT       -36.1820  -74.4160   -1.0830 O         1 <0>         0.0000
  15916 WAT       -36.1820  -74.4160   -0.8330 O         1 <0>         0.0000
  15917 WAT       -36.1820  -74.4160   -0.5830 O         1 <0>         0.0000
  15918 WAT       -36.1820  -74.4160   -0.3330 O         1 <0>         0.0000
  15919 WAT       -36.1820  -74.4160   -0.0830 O         1 <0>         0.0000
  15920 WAT       -36.1820  -74.1660   -9.8330 O         1 <0>         0.0000
  15921 WAT       -36.1820  -74.1660   -9.5830 O         1 <0>         0.0000
  15922 WAT       -36.1820  -74.1660   -9.3330 O         1 <0>         0.0000
  15923 WAT       -36.1820  -74.1660   -9.0830 O         1 <0>         0.0000
  15924 WAT       -36.1820  -74.1660   -8.8330 O         1 <0>         0.0000
  15925 WAT       -36.1820  -74.1660   -8.5830 O         1 <0>         0.0000
  15926 WAT       -36.1820  -74.1660   -8.3330 O         1 <0>         0.0000
  15927 WAT       -36.1820  -74.1660   -8.0830 O         1 <0>         0.0000
  15928 WAT       -36.1820  -74.1660   -7.8330 O         1 <0>         0.0000
  15929 WAT       -36.1820  -74.1660   -7.5830 O         1 <0>         0.0000
  15930 WAT       -36.1820  -74.1660   -7.3330 O         1 <0>         0.0003
  15931 WAT       -36.1820  -74.1660   -7.0830 O         1 <0>         0.0022
  15932 WAT       -36.1820  -74.1660   -6.8330 O         1 <0>         0.0097
  15933 WAT       -36.1820  -74.1660   -6.5830 O         1 <0>         0.0301
  15934 WAT       -36.1820  -74.1660   -6.3330 O         1 <0>         0.0669
  15935 WAT       -36.1820  -74.1660   -6.0830 O         1 <0>         0.1077
  15936 WAT       -36.1820  -74.1660   -5.8330 O         1 <0>         0.1285
  15937 WAT       -36.1820  -74.1660   -5.5830 O         1 <0>         0.1210
  15938 WAT       -36.1820  -74.1660   -5.3330 O         1 <0>         0.1008
  15939 WAT       -36.1820  -74.1660   -5.0830 O         1 <0>         0.0839
  15940 WAT       -36.1820  -74.1660   -4.8330 O         1 <0>         0.0714
  15941 WAT       -36.1820  -74.1660   -4.5830 O         1 <0>         0.0605
  15942 WAT       -36.1820  -74.1660   -4.3330 O         1 <0>         0.0521
  15943 WAT       -36.1820  -74.1660   -4.0830 O         1 <0>         0.0494
  15944 WAT       -36.1820  -74.1660   -3.8330 O         1 <0>         0.0518
  15945 WAT       -36.1820  -74.1660   -3.5830 O         1 <0>         0.0538
  15946 WAT       -36.1820  -74.1660   -3.3330 O         1 <0>         0.0469
  15947 WAT       -36.1820  -74.1660   -3.0830 O         1 <0>         0.0307
  15948 WAT       -36.1820  -74.1660   -2.8330 O         1 <0>         0.0139
  15949 WAT       -36.1820  -74.1660   -2.5830 O         1 <0>         0.0040
  15950 WAT       -36.1820  -74.1660   -2.3330 O         1 <0>         0.0006
  15951 WAT       -36.1820  -74.1660   -2.0830 O         1 <0>         0.0000
  15952 WAT       -36.1820  -74.1660   -1.8330 O         1 <0>         0.0000
  15953 WAT       -36.1820  -74.1660   -1.5830 O         1 <0>         0.0000
  15954 WAT       -36.1820  -74.1660   -1.3330 O         1 <0>         0.0000
  15955 WAT       -36.1820  -74.1660   -1.0830 O         1 <0>         0.0000
  15956 WAT       -36.1820  -74.1660   -0.8330 O         1 <0>         0.0000
  15957 WAT       -36.1820  -74.1660   -0.5830 O         1 <0>         0.0000
  15958 WAT       -36.1820  -74.1660   -0.3330 O         1 <0>         0.0000
  15959 WAT       -36.1820  -74.1660   -0.0830 O         1 <0>         0.0000
  15960 WAT       -36.1820  -73.9160   -9.8330 O         1 <0>         0.0000
  15961 WAT       -36.1820  -73.9160   -9.5830 O         1 <0>         0.0000
  15962 WAT       -36.1820  -73.9160   -9.3330 O         1 <0>         0.0000
  15963 WAT       -36.1820  -73.9160   -9.0830 O         1 <0>         0.0000
  15964 WAT       -36.1820  -73.9160   -8.8330 O         1 <0>         0.0000
  15965 WAT       -36.1820  -73.9160   -8.5830 O         1 <0>         0.0000
  15966 WAT       -36.1820  -73.9160   -8.3330 O         1 <0>         0.0000
  15967 WAT       -36.1820  -73.9160   -8.0830 O         1 <0>         0.0000
  15968 WAT       -36.1820  -73.9160   -7.8330 O         1 <0>         0.0000
  15969 WAT       -36.1820  -73.9160   -7.5830 O         1 <0>         0.0001
  15970 WAT       -36.1820  -73.9160   -7.3330 O         1 <0>         0.0009
  15971 WAT       -36.1820  -73.9160   -7.0830 O         1 <0>         0.0045
  15972 WAT       -36.1820  -73.9160   -6.8330 O         1 <0>         0.0173
  15973 WAT       -36.1820  -73.9160   -6.5830 O         1 <0>         0.0497
  15974 WAT       -36.1820  -73.9160   -6.3330 O         1 <0>         0.1062
  15975 WAT       -36.1820  -73.9160   -6.0830 O         1 <0>         0.1659
  15976 WAT       -36.1820  -73.9160   -5.8330 O         1 <0>         0.1910
  15977 WAT       -36.1820  -73.9160   -5.5830 O         1 <0>         0.1696
  15978 WAT       -36.1820  -73.9160   -5.3330 O         1 <0>         0.1298
  15979 WAT       -36.1820  -73.9160   -5.0830 O         1 <0>         0.0989
  15980 WAT       -36.1820  -73.9160   -4.8330 O         1 <0>         0.0796
  15981 WAT       -36.1820  -73.9160   -4.5830 O         1 <0>         0.0651
  15982 WAT       -36.1820  -73.9160   -4.3330 O         1 <0>         0.0536
  15983 WAT       -36.1820  -73.9160   -4.0830 O         1 <0>         0.0474
  15984 WAT       -36.1820  -73.9160   -3.8330 O         1 <0>         0.0466
  15985 WAT       -36.1820  -73.9160   -3.5830 O         1 <0>         0.0469
  15986 WAT       -36.1820  -73.9160   -3.3330 O         1 <0>         0.0410
  15987 WAT       -36.1820  -73.9160   -3.0830 O         1 <0>         0.0273
  15988 WAT       -36.1820  -73.9160   -2.8330 O         1 <0>         0.0127
  15989 WAT       -36.1820  -73.9160   -2.5830 O         1 <0>         0.0038
  15990 WAT       -36.1820  -73.9160   -2.3330 O         1 <0>         0.0006
  15991 WAT       -36.1820  -73.9160   -2.0830 O         1 <0>         0.0000
  15992 WAT       -36.1820  -73.9160   -1.8330 O         1 <0>         0.0000
  15993 WAT       -36.1820  -73.9160   -1.5830 O         1 <0>         0.0000
  15994 WAT       -36.1820  -73.9160   -1.3330 O         1 <0>         0.0000
  15995 WAT       -36.1820  -73.9160   -1.0830 O         1 <0>         0.0000
  15996 WAT       -36.1820  -73.9160   -0.8330 O         1 <0>         0.0000
  15997 WAT       -36.1820  -73.9160   -0.5830 O         1 <0>         0.0000
  15998 WAT       -36.1820  -73.9160   -0.3330 O         1 <0>         0.0000
  15999 WAT       -36.1820  -73.9160   -0.0830 O         1 <0>         0.0000
  16000 WAT       -36.1820  -73.6660   -9.8330 O         1 <0>         0.0000
  16001 WAT       -36.1820  -73.6660   -9.5830 O         1 <0>         0.0000
  16002 WAT       -36.1820  -73.6660   -9.3330 O         1 <0>         0.0000
  16003 WAT       -36.1820  -73.6660   -9.0830 O         1 <0>         0.0000
  16004 WAT       -36.1820  -73.6660   -8.8330 O         1 <0>         0.0000
  16005 WAT       -36.1820  -73.6660   -8.5830 O         1 <0>         0.0000
  16006 WAT       -36.1820  -73.6660   -8.3330 O         1 <0>         0.0000
  16007 WAT       -36.1820  -73.6660   -8.0830 O         1 <0>         0.0000
  16008 WAT       -36.1820  -73.6660   -7.8330 O         1 <0>         0.0000
  16009 WAT       -36.1820  -73.6660   -7.5830 O         1 <0>         0.0003
  16010 WAT       -36.1820  -73.6660   -7.3330 O         1 <0>         0.0017
  16011 WAT       -36.1820  -73.6660   -7.0830 O         1 <0>         0.0068
  16012 WAT       -36.1820  -73.6660   -6.8330 O         1 <0>         0.0225
  16013 WAT       -36.1820  -73.6660   -6.5830 O         1 <0>         0.0600
  16014 WAT       -36.1820  -73.6660   -6.3330 O         1 <0>         0.1236
  16015 WAT       -36.1820  -73.6660   -6.0830 O         1 <0>         0.1894
  16016 WAT       -36.1820  -73.6660   -5.8330 O         1 <0>         0.2124
  16017 WAT       -36.1820  -73.6660   -5.5830 O         1 <0>         0.1803
  16018 WAT       -36.1820  -73.6660   -5.3330 O         1 <0>         0.1281
  16019 WAT       -36.1820  -73.6660   -5.0830 O         1 <0>         0.0895
  16020 WAT       -36.1820  -73.6660   -4.8330 O         1 <0>         0.0680
  16021 WAT       -36.1820  -73.6660   -4.5830 O         1 <0>         0.0541
  16022 WAT       -36.1820  -73.6660   -4.3330 O         1 <0>         0.0429
  16023 WAT       -36.1820  -73.6660   -4.0830 O         1 <0>         0.0351
  16024 WAT       -36.1820  -73.6660   -3.8330 O         1 <0>         0.0315
  16025 WAT       -36.1820  -73.6660   -3.5830 O         1 <0>         0.0299
  16026 WAT       -36.1820  -73.6660   -3.3330 O         1 <0>         0.0257
  16027 WAT       -36.1820  -73.6660   -3.0830 O         1 <0>         0.0172
  16028 WAT       -36.1820  -73.6660   -2.8330 O         1 <0>         0.0081
  16029 WAT       -36.1820  -73.6660   -2.5830 O         1 <0>         0.0025
  16030 WAT       -36.1820  -73.6660   -2.3330 O         1 <0>         0.0004
  16031 WAT       -36.1820  -73.6660   -2.0830 O         1 <0>         0.0000
  16032 WAT       -36.1820  -73.6660   -1.8330 O         1 <0>         0.0000
  16033 WAT       -36.1820  -73.6660   -1.5830 O         1 <0>         0.0000
  16034 WAT       -36.1820  -73.6660   -1.3330 O         1 <0>         0.0000
  16035 WAT       -36.1820  -73.6660   -1.0830 O         1 <0>         0.0000
  16036 WAT       -36.1820  -73.6660   -0.8330 O         1 <0>         0.0000
  16037 WAT       -36.1820  -73.6660   -0.5830 O         1 <0>         0.0000
  16038 WAT       -36.1820  -73.6660   -0.3330 O         1 <0>         0.0000
  16039 WAT       -36.1820  -73.6660   -0.0830 O         1 <0>         0.0000
  16040 WAT       -36.1820  -73.4160   -9.8330 O         1 <0>         0.0000
  16041 WAT       -36.1820  -73.4160   -9.5830 O         1 <0>         0.0000
  16042 WAT       -36.1820  -73.4160   -9.3330 O         1 <0>         0.0000
  16043 WAT       -36.1820  -73.4160   -9.0830 O         1 <0>         0.0000
  16044 WAT       -36.1820  -73.4160   -8.8330 O         1 <0>         0.0000
  16045 WAT       -36.1820  -73.4160   -8.5830 O         1 <0>         0.0000
  16046 WAT       -36.1820  -73.4160   -8.3330 O         1 <0>         0.0000
  16047 WAT       -36.1820  -73.4160   -8.0830 O         1 <0>         0.0000
  16048 WAT       -36.1820  -73.4160   -7.8330 O         1 <0>         0.0001
  16049 WAT       -36.1820  -73.4160   -7.5830 O         1 <0>         0.0005
  16050 WAT       -36.1820  -73.4160   -7.3330 O         1 <0>         0.0023
  16051 WAT       -36.1820  -73.4160   -7.0830 O         1 <0>         0.0076
  16052 WAT       -36.1820  -73.4160   -6.8330 O         1 <0>         0.0217
  16053 WAT       -36.1820  -73.4160   -6.5830 O         1 <0>         0.0528
  16054 WAT       -36.1820  -73.4160   -6.3330 O         1 <0>         0.1045
  16055 WAT       -36.1820  -73.4160   -6.0830 O         1 <0>         0.1573
  16056 WAT       -36.1820  -73.4160   -5.8330 O         1 <0>         0.1732
  16057 WAT       -36.1820  -73.4160   -5.5830 O         1 <0>         0.1420
  16058 WAT       -36.1820  -73.4160   -5.3330 O         1 <0>         0.0947
  16059 WAT       -36.1820  -73.4160   -5.0830 O         1 <0>         0.0609
  16060 WAT       -36.1820  -73.4160   -4.8330 O         1 <0>         0.0437
  16061 WAT       -36.1820  -73.4160   -4.5830 O         1 <0>         0.0338
  16062 WAT       -36.1820  -73.4160   -4.3330 O         1 <0>         0.0259
  16063 WAT       -36.1820  -73.4160   -4.0830 O         1 <0>         0.0194
  16064 WAT       -36.1820  -73.4160   -3.8330 O         1 <0>         0.0155
  16065 WAT       -36.1820  -73.4160   -3.5830 O         1 <0>         0.0135
  16066 WAT       -36.1820  -73.4160   -3.3330 O         1 <0>         0.0112
  16067 WAT       -36.1820  -73.4160   -3.0830 O         1 <0>         0.0073
  16068 WAT       -36.1820  -73.4160   -2.8330 O         1 <0>         0.0034
  16069 WAT       -36.1820  -73.4160   -2.5830 O         1 <0>         0.0010
  16070 WAT       -36.1820  -73.4160   -2.3330 O         1 <0>         0.0002
  16071 WAT       -36.1820  -73.4160   -2.0830 O         1 <0>         0.0000
  16072 WAT       -36.1820  -73.4160   -1.8330 O         1 <0>         0.0000
  16073 WAT       -36.1820  -73.4160   -1.5830 O         1 <0>         0.0000
  16074 WAT       -36.1820  -73.4160   -1.3330 O         1 <0>         0.0000
  16075 WAT       -36.1820  -73.4160   -1.0830 O         1 <0>         0.0000
  16076 WAT       -36.1820  -73.4160   -0.8330 O         1 <0>         0.0000
  16077 WAT       -36.1820  -73.4160   -0.5830 O         1 <0>         0.0000
  16078 WAT       -36.1820  -73.4160   -0.3330 O         1 <0>         0.0000
  16079 WAT       -36.1820  -73.4160   -0.0830 O         1 <0>         0.0000
  16080 WAT       -36.1820  -73.1660   -9.8330 O         1 <0>         0.0000
  16081 WAT       -36.1820  -73.1660   -9.5830 O         1 <0>         0.0000
  16082 WAT       -36.1820  -73.1660   -9.3330 O         1 <0>         0.0000
  16083 WAT       -36.1820  -73.1660   -9.0830 O         1 <0>         0.0000
  16084 WAT       -36.1820  -73.1660   -8.8330 O         1 <0>         0.0000
  16085 WAT       -36.1820  -73.1660   -8.5830 O         1 <0>         0.0000
  16086 WAT       -36.1820  -73.1660   -8.3330 O         1 <0>         0.0000
  16087 WAT       -36.1820  -73.1660   -8.0830 O         1 <0>         0.0000
  16088 WAT       -36.1820  -73.1660   -7.8330 O         1 <0>         0.0001
  16089 WAT       -36.1820  -73.1660   -7.5830 O         1 <0>         0.0005
  16090 WAT       -36.1820  -73.1660   -7.3330 O         1 <0>         0.0022
  16091 WAT       -36.1820  -73.1660   -7.0830 O         1 <0>         0.0065
  16092 WAT       -36.1820  -73.1660   -6.8330 O         1 <0>         0.0159
  16093 WAT       -36.1820  -73.1660   -6.5830 O         1 <0>         0.0345
  16094 WAT       -36.1820  -73.1660   -6.3330 O         1 <0>         0.0643
  16095 WAT       -36.1820  -73.1660   -6.0830 O         1 <0>         0.0943
  16096 WAT       -36.1820  -73.1660   -5.8330 O         1 <0>         0.1021
  16097 WAT       -36.1820  -73.1660   -5.5830 O         1 <0>         0.0814
  16098 WAT       -36.1820  -73.1660   -5.3330 O         1 <0>         0.0512
  16099 WAT       -36.1820  -73.1660   -5.0830 O         1 <0>         0.0302
  16100 WAT       -36.1820  -73.1660   -4.8330 O         1 <0>         0.0204
  16101 WAT       -36.1820  -73.1660   -4.5830 O         1 <0>         0.0154
  16102 WAT       -36.1820  -73.1660   -4.3330 O         1 <0>         0.0112
  16103 WAT       -36.1820  -73.1660   -4.0830 O         1 <0>         0.0076
  16104 WAT       -36.1820  -73.1660   -3.8330 O         1 <0>         0.0052
  16105 WAT       -36.1820  -73.1660   -3.5830 O         1 <0>         0.0040
  16106 WAT       -36.1820  -73.1660   -3.3330 O         1 <0>         0.0031
  16107 WAT       -36.1820  -73.1660   -3.0830 O         1 <0>         0.0019
  16108 WAT       -36.1820  -73.1660   -2.8330 O         1 <0>         0.0008
  16109 WAT       -36.1820  -73.1660   -2.5830 O         1 <0>         0.0002
  16110 WAT       -36.1820  -73.1660   -2.3330 O         1 <0>         0.0000
  16111 WAT       -36.1820  -73.1660   -2.0830 O         1 <0>         0.0000
  16112 WAT       -36.1820  -73.1660   -1.8330 O         1 <0>         0.0000
  16113 WAT       -36.1820  -73.1660   -1.5830 O         1 <0>         0.0000
  16114 WAT       -36.1820  -73.1660   -1.3330 O         1 <0>         0.0000
  16115 WAT       -36.1820  -73.1660   -1.0830 O         1 <0>         0.0000
  16116 WAT       -36.1820  -73.1660   -0.8330 O         1 <0>         0.0000
  16117 WAT       -36.1820  -73.1660   -0.5830 O         1 <0>         0.0000
  16118 WAT       -36.1820  -73.1660   -0.3330 O         1 <0>         0.0000
  16119 WAT       -36.1820  -73.1660   -0.0830 O         1 <0>         0.0000
  16120 WAT       -36.1820  -72.9160   -9.8330 O         1 <0>         0.0000
  16121 WAT       -36.1820  -72.9160   -9.5830 O         1 <0>         0.0000
  16122 WAT       -36.1820  -72.9160   -9.3330 O         1 <0>         0.0000
  16123 WAT       -36.1820  -72.9160   -9.0830 O         1 <0>         0.0000
  16124 WAT       -36.1820  -72.9160   -8.8330 O         1 <0>         0.0000
  16125 WAT       -36.1820  -72.9160   -8.5830 O         1 <0>         0.0000
  16126 WAT       -36.1820  -72.9160   -8.3330 O         1 <0>         0.0000
  16127 WAT       -36.1820  -72.9160   -8.0830 O         1 <0>         0.0000
  16128 WAT       -36.1820  -72.9160   -7.8330 O         1 <0>         0.0000
  16129 WAT       -36.1820  -72.9160   -7.5830 O         1 <0>         0.0003
  16130 WAT       -36.1820  -72.9160   -7.3330 O         1 <0>         0.0015
  16131 WAT       -36.1820  -72.9160   -7.0830 O         1 <0>         0.0044
  16132 WAT       -36.1820  -72.9160   -6.8330 O         1 <0>         0.0093
  16133 WAT       -36.1820  -72.9160   -6.5830 O         1 <0>         0.0174
  16134 WAT       -36.1820  -72.9160   -6.3330 O         1 <0>         0.0292
  16135 WAT       -36.1820  -72.9160   -6.0830 O         1 <0>         0.0409
  16136 WAT       -36.1820  -72.9160   -5.8330 O         1 <0>         0.0431
  16137 WAT       -36.1820  -72.9160   -5.5830 O         1 <0>         0.0333
  16138 WAT       -36.1820  -72.9160   -5.3330 O         1 <0>         0.0196
  16139 WAT       -36.1820  -72.9160   -5.0830 O         1 <0>         0.0104
  16140 WAT       -36.1820  -72.9160   -4.8330 O         1 <0>         0.0065
  16141 WAT       -36.1820  -72.9160   -4.5830 O         1 <0>         0.0048
  16142 WAT       -36.1820  -72.9160   -4.3330 O         1 <0>         0.0033
  16143 WAT       -36.1820  -72.9160   -4.0830 O         1 <0>         0.0019
  16144 WAT       -36.1820  -72.9160   -3.8330 O         1 <0>         0.0011
  16145 WAT       -36.1820  -72.9160   -3.5830 O         1 <0>         0.0006
  16146 WAT       -36.1820  -72.9160   -3.3330 O         1 <0>         0.0004
  16147 WAT       -36.1820  -72.9160   -3.0830 O         1 <0>         0.0002
  16148 WAT       -36.1820  -72.9160   -2.8330 O         1 <0>         0.0001
  16149 WAT       -36.1820  -72.9160   -2.5830 O         1 <0>         0.0000
  16150 WAT       -36.1820  -72.9160   -2.3330 O         1 <0>         0.0000
  16151 WAT       -36.1820  -72.9160   -2.0830 O         1 <0>         0.0000
  16152 WAT       -36.1820  -72.9160   -1.8330 O         1 <0>         0.0000
  16153 WAT       -36.1820  -72.9160   -1.5830 O         1 <0>         0.0000
  16154 WAT       -36.1820  -72.9160   -1.3330 O         1 <0>         0.0000
  16155 WAT       -36.1820  -72.9160   -1.0830 O         1 <0>         0.0000
  16156 WAT       -36.1820  -72.9160   -0.8330 O         1 <0>         0.0000
  16157 WAT       -36.1820  -72.9160   -0.5830 O         1 <0>         0.0000
  16158 WAT       -36.1820  -72.9160   -0.3330 O         1 <0>         0.0000
  16159 WAT       -36.1820  -72.9160   -0.0830 O         1 <0>         0.0000
  16160 WAT       -36.1820  -72.6660   -9.8330 O         1 <0>         0.0000
  16161 WAT       -36.1820  -72.6660   -9.5830 O         1 <0>         0.0000
  16162 WAT       -36.1820  -72.6660   -9.3330 O         1 <0>         0.0000
  16163 WAT       -36.1820  -72.6660   -9.0830 O         1 <0>         0.0000
  16164 WAT       -36.1820  -72.6660   -8.8330 O         1 <0>         0.0000
  16165 WAT       -36.1820  -72.6660   -8.5830 O         1 <0>         0.0000
  16166 WAT       -36.1820  -72.6660   -8.3330 O         1 <0>         0.0000
  16167 WAT       -36.1820  -72.6660   -8.0830 O         1 <0>         0.0000
  16168 WAT       -36.1820  -72.6660   -7.8330 O         1 <0>         0.0000
  16169 WAT       -36.1820  -72.6660   -7.5830 O         1 <0>         0.0002
  16170 WAT       -36.1820  -72.6660   -7.3330 O         1 <0>         0.0009
  16171 WAT       -36.1820  -72.6660   -7.0830 O         1 <0>         0.0024
  16172 WAT       -36.1820  -72.6660   -6.8330 O         1 <0>         0.0046
  16173 WAT       -36.1820  -72.6660   -6.5830 O         1 <0>         0.0071
  16174 WAT       -36.1820  -72.6660   -6.3330 O         1 <0>         0.0102
  16175 WAT       -36.1820  -72.6660   -6.0830 O         1 <0>         0.0129
  16176 WAT       -36.1820  -72.6660   -5.8330 O         1 <0>         0.0129
  16177 WAT       -36.1820  -72.6660   -5.5830 O         1 <0>         0.0094
  16178 WAT       -36.1820  -72.6660   -5.3330 O         1 <0>         0.0050
  16179 WAT       -36.1820  -72.6660   -5.0830 O         1 <0>         0.0023
  16180 WAT       -36.1820  -72.6660   -4.8330 O         1 <0>         0.0012
  16181 WAT       -36.1820  -72.6660   -4.5830 O         1 <0>         0.0008
  16182 WAT       -36.1820  -72.6660   -4.3330 O         1 <0>         0.0005
  16183 WAT       -36.1820  -72.6660   -4.0830 O         1 <0>         0.0002
  16184 WAT       -36.1820  -72.6660   -3.8330 O         1 <0>         0.0001
  16185 WAT       -36.1820  -72.6660   -3.5830 O         1 <0>         0.0000
  16186 WAT       -36.1820  -72.6660   -3.3330 O         1 <0>         0.0000
  16187 WAT       -36.1820  -72.6660   -3.0830 O         1 <0>         0.0000
  16188 WAT       -36.1820  -72.6660   -2.8330 O         1 <0>         0.0000
  16189 WAT       -36.1820  -72.6660   -2.5830 O         1 <0>         0.0000
  16190 WAT       -36.1820  -72.6660   -2.3330 O         1 <0>         0.0000
  16191 WAT       -36.1820  -72.6660   -2.0830 O         1 <0>         0.0000
  16192 WAT       -36.1820  -72.6660   -1.8330 O         1 <0>         0.0000
  16193 WAT       -36.1820  -72.6660   -1.5830 O         1 <0>         0.0000
  16194 WAT       -36.1820  -72.6660   -1.3330 O         1 <0>         0.0000
  16195 WAT       -36.1820  -72.6660   -1.0830 O         1 <0>         0.0000
  16196 WAT       -36.1820  -72.6660   -0.8330 O         1 <0>         0.0000
  16197 WAT       -36.1820  -72.6660   -0.5830 O         1 <0>         0.0000
  16198 WAT       -36.1820  -72.6660   -0.3330 O         1 <0>         0.0000
  16199 WAT       -36.1820  -72.6660   -0.0830 O         1 <0>         0.0000
  16200 WAT       -36.1820  -72.4160   -9.8330 O         1 <0>         0.0000
  16201 WAT       -36.1820  -72.4160   -9.5830 O         1 <0>         0.0000
  16202 WAT       -36.1820  -72.4160   -9.3330 O         1 <0>         0.0000
  16203 WAT       -36.1820  -72.4160   -9.0830 O         1 <0>         0.0000
  16204 WAT       -36.1820  -72.4160   -8.8330 O         1 <0>         0.0000
  16205 WAT       -36.1820  -72.4160   -8.5830 O         1 <0>         0.0000
  16206 WAT       -36.1820  -72.4160   -8.3330 O         1 <0>         0.0000
  16207 WAT       -36.1820  -72.4160   -8.0830 O         1 <0>         0.0000
  16208 WAT       -36.1820  -72.4160   -7.8330 O         1 <0>         0.0000
  16209 WAT       -36.1820  -72.4160   -7.5830 O         1 <0>         0.0001
  16210 WAT       -36.1820  -72.4160   -7.3330 O         1 <0>         0.0004
  16211 WAT       -36.1820  -72.4160   -7.0830 O         1 <0>         0.0012
  16212 WAT       -36.1820  -72.4160   -6.8330 O         1 <0>         0.0021
  16213 WAT       -36.1820  -72.4160   -6.5830 O         1 <0>         0.0026
  16214 WAT       -36.1820  -72.4160   -6.3330 O         1 <0>         0.0030
  16215 WAT       -36.1820  -72.4160   -6.0830 O         1 <0>         0.0031
  16216 WAT       -36.1820  -72.4160   -5.8330 O         1 <0>         0.0027
  16217 WAT       -36.1820  -72.4160   -5.5830 O         1 <0>         0.0018
  16218 WAT       -36.1820  -72.4160   -5.3330 O         1 <0>         0.0008
  16219 WAT       -36.1820  -72.4160   -5.0830 O         1 <0>         0.0003
  16220 WAT       -36.1820  -72.4160   -4.8330 O         1 <0>         0.0001
  16221 WAT       -36.1820  -72.4160   -4.5830 O         1 <0>         0.0001
  16222 WAT       -36.1820  -72.4160   -4.3330 O         1 <0>         0.0000
  16223 WAT       -36.1820  -72.4160   -4.0830 O         1 <0>         0.0000
  16224 WAT       -36.1820  -72.4160   -3.8330 O         1 <0>         0.0000
  16225 WAT       -36.1820  -72.4160   -3.5830 O         1 <0>         0.0000
  16226 WAT       -36.1820  -72.4160   -3.3330 O         1 <0>         0.0000
  16227 WAT       -36.1820  -72.4160   -3.0830 O         1 <0>         0.0000
  16228 WAT       -36.1820  -72.4160   -2.8330 O         1 <0>         0.0000
  16229 WAT       -36.1820  -72.4160   -2.5830 O         1 <0>         0.0000
  16230 WAT       -36.1820  -72.4160   -2.3330 O         1 <0>         0.0000
  16231 WAT       -36.1820  -72.4160   -2.0830 O         1 <0>         0.0000
  16232 WAT       -36.1820  -72.4160   -1.8330 O         1 <0>         0.0000
  16233 WAT       -36.1820  -72.4160   -1.5830 O         1 <0>         0.0000
  16234 WAT       -36.1820  -72.4160   -1.3330 O         1 <0>         0.0000
  16235 WAT       -36.1820  -72.4160   -1.0830 O         1 <0>         0.0000
  16236 WAT       -36.1820  -72.4160   -0.8330 O         1 <0>         0.0000
  16237 WAT       -36.1820  -72.4160   -0.5830 O         1 <0>         0.0000
  16238 WAT       -36.1820  -72.4160   -0.3330 O         1 <0>         0.0000
  16239 WAT       -36.1820  -72.4160   -0.0830 O         1 <0>         0.0000
  16240 WAT       -36.1820  -72.1660   -9.8330 O         1 <0>         0.0000
  16241 WAT       -36.1820  -72.1660   -9.5830 O         1 <0>         0.0000
  16242 WAT       -36.1820  -72.1660   -9.3330 O         1 <0>         0.0000
  16243 WAT       -36.1820  -72.1660   -9.0830 O         1 <0>         0.0000
  16244 WAT       -36.1820  -72.1660   -8.8330 O         1 <0>         0.0000
  16245 WAT       -36.1820  -72.1660   -8.5830 O         1 <0>         0.0000
  16246 WAT       -36.1820  -72.1660   -8.3330 O         1 <0>         0.0000
  16247 WAT       -36.1820  -72.1660   -8.0830 O         1 <0>         0.0000
  16248 WAT       -36.1820  -72.1660   -7.8330 O         1 <0>         0.0000
  16249 WAT       -36.1820  -72.1660   -7.5830 O         1 <0>         0.0000
  16250 WAT       -36.1820  -72.1660   -7.3330 O         1 <0>         0.0003
  16251 WAT       -36.1820  -72.1660   -7.0830 O         1 <0>         0.0006
  16252 WAT       -36.1820  -72.1660   -6.8330 O         1 <0>         0.0009
  16253 WAT       -36.1820  -72.1660   -6.5830 O         1 <0>         0.0009
  16254 WAT       -36.1820  -72.1660   -6.3330 O         1 <0>         0.0008
  16255 WAT       -36.1820  -72.1660   -6.0830 O         1 <0>         0.0006
  16256 WAT       -36.1820  -72.1660   -5.8330 O         1 <0>         0.0004
  16257 WAT       -36.1820  -72.1660   -5.5830 O         1 <0>         0.0002
  16258 WAT       -36.1820  -72.1660   -5.3330 O         1 <0>         0.0001
  16259 WAT       -36.1820  -72.1660   -5.0830 O         1 <0>         0.0000
  16260 WAT       -36.1820  -72.1660   -4.8330 O         1 <0>         0.0000
  16261 WAT       -36.1820  -72.1660   -4.5830 O         1 <0>         0.0000
  16262 WAT       -36.1820  -72.1660   -4.3330 O         1 <0>         0.0000
  16263 WAT       -36.1820  -72.1660   -4.0830 O         1 <0>         0.0000
  16264 WAT       -36.1820  -72.1660   -3.8330 O         1 <0>         0.0000
  16265 WAT       -36.1820  -72.1660   -3.5830 O         1 <0>         0.0000
  16266 WAT       -36.1820  -72.1660   -3.3330 O         1 <0>         0.0000
  16267 WAT       -36.1820  -72.1660   -3.0830 O         1 <0>         0.0000
  16268 WAT       -36.1820  -72.1660   -2.8330 O         1 <0>         0.0000
  16269 WAT       -36.1820  -72.1660   -2.5830 O         1 <0>         0.0000
  16270 WAT       -36.1820  -72.1660   -2.3330 O         1 <0>         0.0000
  16271 WAT       -36.1820  -72.1660   -2.0830 O         1 <0>         0.0000
  16272 WAT       -36.1820  -72.1660   -1.8330 O         1 <0>         0.0000
  16273 WAT       -36.1820  -72.1660   -1.5830 O         1 <0>         0.0000
  16274 WAT       -36.1820  -72.1660   -1.3330 O         1 <0>         0.0000
  16275 WAT       -36.1820  -72.1660   -1.0830 O         1 <0>         0.0000
  16276 WAT       -36.1820  -72.1660   -0.8330 O         1 <0>         0.0000
  16277 WAT       -36.1820  -72.1660   -0.5830 O         1 <0>         0.0000
  16278 WAT       -36.1820  -72.1660   -0.3330 O         1 <0>         0.0000
  16279 WAT       -36.1820  -72.1660   -0.0830 O         1 <0>         0.0000
  16280 WAT       -36.1820  -71.9160   -9.8330 O         1 <0>         0.0000
  16281 WAT       -36.1820  -71.9160   -9.5830 O         1 <0>         0.0000
  16282 WAT       -36.1820  -71.9160   -9.3330 O         1 <0>         0.0000
  16283 WAT       -36.1820  -71.9160   -9.0830 O         1 <0>         0.0000
  16284 WAT       -36.1820  -71.9160   -8.8330 O         1 <0>         0.0000
  16285 WAT       -36.1820  -71.9160   -8.5830 O         1 <0>         0.0000
  16286 WAT       -36.1820  -71.9160   -8.3330 O         1 <0>         0.0000
  16287 WAT       -36.1820  -71.9160   -8.0830 O         1 <0>         0.0000
  16288 WAT       -36.1820  -71.9160   -7.8330 O         1 <0>         0.0000
  16289 WAT       -36.1820  -71.9160   -7.5830 O         1 <0>         0.0001
  16290 WAT       -36.1820  -71.9160   -7.3330 O         1 <0>         0.0003
  16291 WAT       -36.1820  -71.9160   -7.0830 O         1 <0>         0.0004
  16292 WAT       -36.1820  -71.9160   -6.8330 O         1 <0>         0.0004
  16293 WAT       -36.1820  -71.9160   -6.5830 O         1 <0>         0.0003
  16294 WAT       -36.1820  -71.9160   -6.3330 O         1 <0>         0.0002
  16295 WAT       -36.1820  -71.9160   -6.0830 O         1 <0>         0.0001
  16296 WAT       -36.1820  -71.9160   -5.8330 O         1 <0>         0.0001
  16297 WAT       -36.1820  -71.9160   -5.5830 O         1 <0>         0.0000
  16298 WAT       -36.1820  -71.9160   -5.3330 O         1 <0>         0.0000
  16299 WAT       -36.1820  -71.9160   -5.0830 O         1 <0>         0.0000
  16300 WAT       -36.1820  -71.9160   -4.8330 O         1 <0>         0.0000
  16301 WAT       -36.1820  -71.9160   -4.5830 O         1 <0>         0.0000
  16302 WAT       -36.1820  -71.9160   -4.3330 O         1 <0>         0.0000
  16303 WAT       -36.1820  -71.9160   -4.0830 O         1 <0>         0.0000
  16304 WAT       -36.1820  -71.9160   -3.8330 O         1 <0>         0.0000
  16305 WAT       -36.1820  -71.9160   -3.5830 O         1 <0>         0.0000
  16306 WAT       -36.1820  -71.9160   -3.3330 O         1 <0>         0.0000
  16307 WAT       -36.1820  -71.9160   -3.0830 O         1 <0>         0.0000
  16308 WAT       -36.1820  -71.9160   -2.8330 O         1 <0>         0.0000
  16309 WAT       -36.1820  -71.9160   -2.5830 O         1 <0>         0.0000
  16310 WAT       -36.1820  -71.9160   -2.3330 O         1 <0>         0.0000
  16311 WAT       -36.1820  -71.9160   -2.0830 O         1 <0>         0.0000
  16312 WAT       -36.1820  -71.9160   -1.8330 O         1 <0>         0.0000
  16313 WAT       -36.1820  -71.9160   -1.5830 O         1 <0>         0.0000
  16314 WAT       -36.1820  -71.9160   -1.3330 O         1 <0>         0.0000
  16315 WAT       -36.1820  -71.9160   -1.0830 O         1 <0>         0.0000
  16316 WAT       -36.1820  -71.9160   -0.8330 O         1 <0>         0.0000
  16317 WAT       -36.1820  -71.9160   -0.5830 O         1 <0>         0.0000
  16318 WAT       -36.1820  -71.9160   -0.3330 O         1 <0>         0.0000
  16319 WAT       -36.1820  -71.9160   -0.0830 O         1 <0>         0.0000
  16320 WAT       -36.1820  -71.6660   -9.8330 O         1 <0>         0.0000
  16321 WAT       -36.1820  -71.6660   -9.5830 O         1 <0>         0.0000
  16322 WAT       -36.1820  -71.6660   -9.3330 O         1 <0>         0.0000
  16323 WAT       -36.1820  -71.6660   -9.0830 O         1 <0>         0.0000
  16324 WAT       -36.1820  -71.6660   -8.8330 O         1 <0>         0.0000
  16325 WAT       -36.1820  -71.6660   -8.5830 O         1 <0>         0.0000
  16326 WAT       -36.1820  -71.6660   -8.3330 O         1 <0>         0.0000
  16327 WAT       -36.1820  -71.6660   -8.0830 O         1 <0>         0.0000
  16328 WAT       -36.1820  -71.6660   -7.8330 O         1 <0>         0.0000
  16329 WAT       -36.1820  -71.6660   -7.5830 O         1 <0>         0.0001
  16330 WAT       -36.1820  -71.6660   -7.3330 O         1 <0>         0.0003
  16331 WAT       -36.1820  -71.6660   -7.0830 O         1 <0>         0.0003
  16332 WAT       -36.1820  -71.6660   -6.8330 O         1 <0>         0.0002
  16333 WAT       -36.1820  -71.6660   -6.5830 O         1 <0>         0.0002
  16334 WAT       -36.1820  -71.6660   -6.3330 O         1 <0>         0.0001
  16335 WAT       -36.1820  -71.6660   -6.0830 O         1 <0>         0.0000
  16336 WAT       -36.1820  -71.6660   -5.8330 O         1 <0>         0.0000
  16337 WAT       -36.1820  -71.6660   -5.5830 O         1 <0>         0.0000
  16338 WAT       -36.1820  -71.6660   -5.3330 O         1 <0>         0.0000
  16339 WAT       -36.1820  -71.6660   -5.0830 O         1 <0>         0.0000
  16340 WAT       -36.1820  -71.6660   -4.8330 O         1 <0>         0.0000
  16341 WAT       -36.1820  -71.6660   -4.5830 O         1 <0>         0.0000
  16342 WAT       -36.1820  -71.6660   -4.3330 O         1 <0>         0.0000
  16343 WAT       -36.1820  -71.6660   -4.0830 O         1 <0>         0.0000
  16344 WAT       -36.1820  -71.6660   -3.8330 O         1 <0>         0.0000
  16345 WAT       -36.1820  -71.6660   -3.5830 O         1 <0>         0.0000
  16346 WAT       -36.1820  -71.6660   -3.3330 O         1 <0>         0.0000
  16347 WAT       -36.1820  -71.6660   -3.0830 O         1 <0>         0.0000
  16348 WAT       -36.1820  -71.6660   -2.8330 O         1 <0>         0.0000
  16349 WAT       -36.1820  -71.6660   -2.5830 O         1 <0>         0.0000
  16350 WAT       -36.1820  -71.6660   -2.3330 O         1 <0>         0.0000
  16351 WAT       -36.1820  -71.6660   -2.0830 O         1 <0>         0.0000
  16352 WAT       -36.1820  -71.6660   -1.8330 O         1 <0>         0.0000
  16353 WAT       -36.1820  -71.6660   -1.5830 O         1 <0>         0.0000
  16354 WAT       -36.1820  -71.6660   -1.3330 O         1 <0>         0.0000
  16355 WAT       -36.1820  -71.6660   -1.0830 O         1 <0>         0.0000
  16356 WAT       -36.1820  -71.6660   -0.8330 O         1 <0>         0.0000
  16357 WAT       -36.1820  -71.6660   -0.5830 O         1 <0>         0.0000
  16358 WAT       -36.1820  -71.6660   -0.3330 O         1 <0>         0.0000
  16359 WAT       -36.1820  -71.6660   -0.0830 O         1 <0>         0.0000
  16360 WAT       -36.1820  -71.4160   -9.8330 O         1 <0>         0.0000
  16361 WAT       -36.1820  -71.4160   -9.5830 O         1 <0>         0.0000
  16362 WAT       -36.1820  -71.4160   -9.3330 O         1 <0>         0.0000
  16363 WAT       -36.1820  -71.4160   -9.0830 O         1 <0>         0.0000
  16364 WAT       -36.1820  -71.4160   -8.8330 O         1 <0>         0.0000
  16365 WAT       -36.1820  -71.4160   -8.5830 O         1 <0>         0.0000
  16366 WAT       -36.1820  -71.4160   -8.3330 O         1 <0>         0.0000
  16367 WAT       -36.1820  -71.4160   -8.0830 O         1 <0>         0.0000
  16368 WAT       -36.1820  -71.4160   -7.8330 O         1 <0>         0.0000
  16369 WAT       -36.1820  -71.4160   -7.5830 O         1 <0>         0.0001
  16370 WAT       -36.1820  -71.4160   -7.3330 O         1 <0>         0.0002
  16371 WAT       -36.1820  -71.4160   -7.0830 O         1 <0>         0.0002
  16372 WAT       -36.1820  -71.4160   -6.8330 O         1 <0>         0.0001
  16373 WAT       -36.1820  -71.4160   -6.5830 O         1 <0>         0.0001
  16374 WAT       -36.1820  -71.4160   -6.3330 O         1 <0>         0.0000
  16375 WAT       -36.1820  -71.4160   -6.0830 O         1 <0>         0.0000
  16376 WAT       -36.1820  -71.4160   -5.8330 O         1 <0>         0.0000
  16377 WAT       -36.1820  -71.4160   -5.5830 O         1 <0>         0.0000
  16378 WAT       -36.1820  -71.4160   -5.3330 O         1 <0>         0.0000
  16379 WAT       -36.1820  -71.4160   -5.0830 O         1 <0>         0.0000
  16380 WAT       -36.1820  -71.4160   -4.8330 O         1 <0>         0.0000
  16381 WAT       -36.1820  -71.4160   -4.5830 O         1 <0>         0.0000
  16382 WAT       -36.1820  -71.4160   -4.3330 O         1 <0>         0.0000
  16383 WAT       -36.1820  -71.4160   -4.0830 O         1 <0>         0.0000
  16384 WAT       -36.1820  -71.4160   -3.8330 O         1 <0>         0.0000
  16385 WAT       -36.1820  -71.4160   -3.5830 O         1 <0>         0.0000
  16386 WAT       -36.1820  -71.4160   -3.3330 O         1 <0>         0.0000
  16387 WAT       -36.1820  -71.4160   -3.0830 O         1 <0>         0.0000
  16388 WAT       -36.1820  -71.4160   -2.8330 O         1 <0>         0.0000
  16389 WAT       -36.1820  -71.4160   -2.5830 O         1 <0>         0.0000
  16390 WAT       -36.1820  -71.4160   -2.3330 O         1 <0>         0.0000
  16391 WAT       -36.1820  -71.4160   -2.0830 O         1 <0>         0.0000
  16392 WAT       -36.1820  -71.4160   -1.8330 O         1 <0>         0.0000
  16393 WAT       -36.1820  -71.4160   -1.5830 O         1 <0>         0.0000
  16394 WAT       -36.1820  -71.4160   -1.3330 O         1 <0>         0.0000
  16395 WAT       -36.1820  -71.4160   -1.0830 O         1 <0>         0.0000
  16396 WAT       -36.1820  -71.4160   -0.8330 O         1 <0>         0.0000
  16397 WAT       -36.1820  -71.4160   -0.5830 O         1 <0>         0.0000
  16398 WAT       -36.1820  -71.4160   -0.3330 O         1 <0>         0.0000
  16399 WAT       -36.1820  -71.4160   -0.0830 O         1 <0>         0.0000
  16400 WAT       -36.1820  -71.1660   -9.8330 O         1 <0>         0.0000
  16401 WAT       -36.1820  -71.1660   -9.5830 O         1 <0>         0.0000
  16402 WAT       -36.1820  -71.1660   -9.3330 O         1 <0>         0.0000
  16403 WAT       -36.1820  -71.1660   -9.0830 O         1 <0>         0.0000
  16404 WAT       -36.1820  -71.1660   -8.8330 O         1 <0>         0.0000
  16405 WAT       -36.1820  -71.1660   -8.5830 O         1 <0>         0.0000
  16406 WAT       -36.1820  -71.1660   -8.3330 O         1 <0>         0.0000
  16407 WAT       -36.1820  -71.1660   -8.0830 O         1 <0>         0.0000
  16408 WAT       -36.1820  -71.1660   -7.8330 O         1 <0>         0.0000
  16409 WAT       -36.1820  -71.1660   -7.5830 O         1 <0>         0.0001
  16410 WAT       -36.1820  -71.1660   -7.3330 O         1 <0>         0.0001
  16411 WAT       -36.1820  -71.1660   -7.0830 O         1 <0>         0.0001
  16412 WAT       -36.1820  -71.1660   -6.8330 O         1 <0>         0.0001
  16413 WAT       -36.1820  -71.1660   -6.5830 O         1 <0>         0.0000
  16414 WAT       -36.1820  -71.1660   -6.3330 O         1 <0>         0.0000
  16415 WAT       -36.1820  -71.1660   -6.0830 O         1 <0>         0.0000
  16416 WAT       -36.1820  -71.1660   -5.8330 O         1 <0>         0.0000
  16417 WAT       -36.1820  -71.1660   -5.5830 O         1 <0>         0.0000
  16418 WAT       -36.1820  -71.1660   -5.3330 O         1 <0>         0.0000
  16419 WAT       -36.1820  -71.1660   -5.0830 O         1 <0>         0.0000
  16420 WAT       -36.1820  -71.1660   -4.8330 O         1 <0>         0.0000
  16421 WAT       -36.1820  -71.1660   -4.5830 O         1 <0>         0.0000
  16422 WAT       -36.1820  -71.1660   -4.3330 O         1 <0>         0.0000
  16423 WAT       -36.1820  -71.1660   -4.0830 O         1 <0>         0.0000
  16424 WAT       -36.1820  -71.1660   -3.8330 O         1 <0>         0.0000
  16425 WAT       -36.1820  -71.1660   -3.5830 O         1 <0>         0.0000
  16426 WAT       -36.1820  -71.1660   -3.3330 O         1 <0>         0.0000
  16427 WAT       -36.1820  -71.1660   -3.0830 O         1 <0>         0.0000
  16428 WAT       -36.1820  -71.1660   -2.8330 O         1 <0>         0.0000
  16429 WAT       -36.1820  -71.1660   -2.5830 O         1 <0>         0.0000
  16430 WAT       -36.1820  -71.1660   -2.3330 O         1 <0>         0.0000
  16431 WAT       -36.1820  -71.1660   -2.0830 O         1 <0>         0.0000
  16432 WAT       -36.1820  -71.1660   -1.8330 O         1 <0>         0.0000
  16433 WAT       -36.1820  -71.1660   -1.5830 O         1 <0>         0.0000
  16434 WAT       -36.1820  -71.1660   -1.3330 O         1 <0>         0.0000
  16435 WAT       -36.1820  -71.1660   -1.0830 O         1 <0>         0.0000
  16436 WAT       -36.1820  -71.1660   -0.8330 O         1 <0>         0.0000
  16437 WAT       -36.1820  -71.1660   -0.5830 O         1 <0>         0.0000
  16438 WAT       -36.1820  -71.1660   -0.3330 O         1 <0>         0.0000
  16439 WAT       -36.1820  -71.1660   -0.0830 O         1 <0>         0.0000
  16440 WAT       -36.1820  -70.9160   -9.8330 O         1 <0>         0.0000
  16441 WAT       -36.1820  -70.9160   -9.5830 O         1 <0>         0.0000
  16442 WAT       -36.1820  -70.9160   -9.3330 O         1 <0>         0.0000
  16443 WAT       -36.1820  -70.9160   -9.0830 O         1 <0>         0.0000
  16444 WAT       -36.1820  -70.9160   -8.8330 O         1 <0>         0.0000
  16445 WAT       -36.1820  -70.9160   -8.5830 O         1 <0>         0.0000
  16446 WAT       -36.1820  -70.9160   -8.3330 O         1 <0>         0.0000
  16447 WAT       -36.1820  -70.9160   -8.0830 O         1 <0>         0.0000
  16448 WAT       -36.1820  -70.9160   -7.8330 O         1 <0>         0.0000
  16449 WAT       -36.1820  -70.9160   -7.5830 O         1 <0>         0.0000
  16450 WAT       -36.1820  -70.9160   -7.3330 O         1 <0>         0.0001
  16451 WAT       -36.1820  -70.9160   -7.0830 O         1 <0>         0.0000
  16452 WAT       -36.1820  -70.9160   -6.8330 O         1 <0>         0.0000
  16453 WAT       -36.1820  -70.9160   -6.5830 O         1 <0>         0.0000
  16454 WAT       -36.1820  -70.9160   -6.3330 O         1 <0>         0.0000
  16455 WAT       -36.1820  -70.9160   -6.0830 O         1 <0>         0.0000
  16456 WAT       -36.1820  -70.9160   -5.8330 O         1 <0>         0.0000
  16457 WAT       -36.1820  -70.9160   -5.5830 O         1 <0>         0.0000
  16458 WAT       -36.1820  -70.9160   -5.3330 O         1 <0>         0.0000
  16459 WAT       -36.1820  -70.9160   -5.0830 O         1 <0>         0.0000
  16460 WAT       -36.1820  -70.9160   -4.8330 O         1 <0>         0.0000
  16461 WAT       -36.1820  -70.9160   -4.5830 O         1 <0>         0.0000
  16462 WAT       -36.1820  -70.9160   -4.3330 O         1 <0>         0.0000
  16463 WAT       -36.1820  -70.9160   -4.0830 O         1 <0>         0.0000
  16464 WAT       -36.1820  -70.9160   -3.8330 O         1 <0>         0.0000
  16465 WAT       -36.1820  -70.9160   -3.5830 O         1 <0>         0.0000
  16466 WAT       -36.1820  -70.9160   -3.3330 O         1 <0>         0.0000
  16467 WAT       -36.1820  -70.9160   -3.0830 O         1 <0>         0.0000
  16468 WAT       -36.1820  -70.9160   -2.8330 O         1 <0>         0.0000
  16469 WAT       -36.1820  -70.9160   -2.5830 O         1 <0>         0.0000
  16470 WAT       -36.1820  -70.9160   -2.3330 O         1 <0>         0.0000
  16471 WAT       -36.1820  -70.9160   -2.0830 O         1 <0>         0.0000
  16472 WAT       -36.1820  -70.9160   -1.8330 O         1 <0>         0.0000
  16473 WAT       -36.1820  -70.9160   -1.5830 O         1 <0>         0.0000
  16474 WAT       -36.1820  -70.9160   -1.3330 O         1 <0>         0.0000
  16475 WAT       -36.1820  -70.9160   -1.0830 O         1 <0>         0.0000
  16476 WAT       -36.1820  -70.9160   -0.8330 O         1 <0>         0.0000
  16477 WAT       -36.1820  -70.9160   -0.5830 O         1 <0>         0.0000
  16478 WAT       -36.1820  -70.9160   -0.3330 O         1 <0>         0.0000
  16479 WAT       -36.1820  -70.9160   -0.0830 O         1 <0>         0.0000
  16480 WAT       -36.1820  -70.6660   -9.8330 O         1 <0>         0.0000
  16481 WAT       -36.1820  -70.6660   -9.5830 O         1 <0>         0.0000
  16482 WAT       -36.1820  -70.6660   -9.3330 O         1 <0>         0.0000
  16483 WAT       -36.1820  -70.6660   -9.0830 O         1 <0>         0.0000
  16484 WAT       -36.1820  -70.6660   -8.8330 O         1 <0>         0.0000
  16485 WAT       -36.1820  -70.6660   -8.5830 O         1 <0>         0.0000
  16486 WAT       -36.1820  -70.6660   -8.3330 O         1 <0>         0.0000
  16487 WAT       -36.1820  -70.6660   -8.0830 O         1 <0>         0.0000
  16488 WAT       -36.1820  -70.6660   -7.8330 O         1 <0>         0.0000
  16489 WAT       -36.1820  -70.6660   -7.5830 O         1 <0>         0.0000
  16490 WAT       -36.1820  -70.6660   -7.3330 O         1 <0>         0.0000
  16491 WAT       -36.1820  -70.6660   -7.0830 O         1 <0>         0.0000
  16492 WAT       -36.1820  -70.6660   -6.8330 O         1 <0>         0.0000
  16493 WAT       -36.1820  -70.6660   -6.5830 O         1 <0>         0.0000
  16494 WAT       -36.1820  -70.6660   -6.3330 O         1 <0>         0.0000
  16495 WAT       -36.1820  -70.6660   -6.0830 O         1 <0>         0.0000
  16496 WAT       -36.1820  -70.6660   -5.8330 O         1 <0>         0.0000
  16497 WAT       -36.1820  -70.6660   -5.5830 O         1 <0>         0.0000
  16498 WAT       -36.1820  -70.6660   -5.3330 O         1 <0>         0.0000
  16499 WAT       -36.1820  -70.6660   -5.0830 O         1 <0>         0.0000
  16500 WAT       -36.1820  -70.6660   -4.8330 O         1 <0>         0.0000
  16501 WAT       -36.1820  -70.6660   -4.5830 O         1 <0>         0.0000
  16502 WAT       -36.1820  -70.6660   -4.3330 O         1 <0>         0.0000
  16503 WAT       -36.1820  -70.6660   -4.0830 O         1 <0>         0.0000
  16504 WAT       -36.1820  -70.6660   -3.8330 O         1 <0>         0.0000
  16505 WAT       -36.1820  -70.6660   -3.5830 O         1 <0>         0.0000
  16506 WAT       -36.1820  -70.6660   -3.3330 O         1 <0>         0.0000
  16507 WAT       -36.1820  -70.6660   -3.0830 O         1 <0>         0.0000
  16508 WAT       -36.1820  -70.6660   -2.8330 O         1 <0>         0.0000
  16509 WAT       -36.1820  -70.6660   -2.5830 O         1 <0>         0.0000
  16510 WAT       -36.1820  -70.6660   -2.3330 O         1 <0>         0.0000
  16511 WAT       -36.1820  -70.6660   -2.0830 O         1 <0>         0.0000
  16512 WAT       -36.1820  -70.6660   -1.8330 O         1 <0>         0.0000
  16513 WAT       -36.1820  -70.6660   -1.5830 O         1 <0>         0.0000
  16514 WAT       -36.1820  -70.6660   -1.3330 O         1 <0>         0.0000
  16515 WAT       -36.1820  -70.6660   -1.0830 O         1 <0>         0.0000
  16516 WAT       -36.1820  -70.6660   -0.8330 O         1 <0>         0.0000
  16517 WAT       -36.1820  -70.6660   -0.5830 O         1 <0>         0.0000
  16518 WAT       -36.1820  -70.6660   -0.3330 O         1 <0>         0.0000
  16519 WAT       -36.1820  -70.6660   -0.0830 O         1 <0>         0.0000
  16520 WAT       -36.1820  -70.4160   -9.8330 O         1 <0>         0.0000
  16521 WAT       -36.1820  -70.4160   -9.5830 O         1 <0>         0.0000
  16522 WAT       -36.1820  -70.4160   -9.3330 O         1 <0>         0.0000
  16523 WAT       -36.1820  -70.4160   -9.0830 O         1 <0>         0.0000
  16524 WAT       -36.1820  -70.4160   -8.8330 O         1 <0>         0.0000
  16525 WAT       -36.1820  -70.4160   -8.5830 O         1 <0>         0.0000
  16526 WAT       -36.1820  -70.4160   -8.3330 O         1 <0>         0.0000
  16527 WAT       -36.1820  -70.4160   -8.0830 O         1 <0>         0.0000
  16528 WAT       -36.1820  -70.4160   -7.8330 O         1 <0>         0.0000
  16529 WAT       -36.1820  -70.4160   -7.5830 O         1 <0>         0.0000
  16530 WAT       -36.1820  -70.4160   -7.3330 O         1 <0>         0.0000
  16531 WAT       -36.1820  -70.4160   -7.0830 O         1 <0>         0.0000
  16532 WAT       -36.1820  -70.4160   -6.8330 O         1 <0>         0.0000
  16533 WAT       -36.1820  -70.4160   -6.5830 O         1 <0>         0.0000
  16534 WAT       -36.1820  -70.4160   -6.3330 O         1 <0>         0.0000
  16535 WAT       -36.1820  -70.4160   -6.0830 O         1 <0>         0.0000
  16536 WAT       -36.1820  -70.4160   -5.8330 O         1 <0>         0.0000
  16537 WAT       -36.1820  -70.4160   -5.5830 O         1 <0>         0.0000
  16538 WAT       -36.1820  -70.4160   -5.3330 O         1 <0>         0.0000
  16539 WAT       -36.1820  -70.4160   -5.0830 O         1 <0>         0.0000
  16540 WAT       -36.1820  -70.4160   -4.8330 O         1 <0>         0.0000
  16541 WAT       -36.1820  -70.4160   -4.5830 O         1 <0>         0.0000
  16542 WAT       -36.1820  -70.4160   -4.3330 O         1 <0>         0.0000
  16543 WAT       -36.1820  -70.4160   -4.0830 O         1 <0>         0.0000
  16544 WAT       -36.1820  -70.4160   -3.8330 O         1 <0>         0.0000
  16545 WAT       -36.1820  -70.4160   -3.5830 O         1 <0>         0.0000
  16546 WAT       -36.1820  -70.4160   -3.3330 O         1 <0>         0.0000
  16547 WAT       -36.1820  -70.4160   -3.0830 O         1 <0>         0.0000
  16548 WAT       -36.1820  -70.4160   -2.8330 O         1 <0>         0.0000
  16549 WAT       -36.1820  -70.4160   -2.5830 O         1 <0>         0.0000
  16550 WAT       -36.1820  -70.4160   -2.3330 O         1 <0>         0.0000
  16551 WAT       -36.1820  -70.4160   -2.0830 O         1 <0>         0.0000
  16552 WAT       -36.1820  -70.4160   -1.8330 O         1 <0>         0.0000
  16553 WAT       -36.1820  -70.4160   -1.5830 O         1 <0>         0.0000
  16554 WAT       -36.1820  -70.4160   -1.3330 O         1 <0>         0.0000
  16555 WAT       -36.1820  -70.4160   -1.0830 O         1 <0>         0.0000
  16556 WAT       -36.1820  -70.4160   -0.8330 O         1 <0>         0.0000
  16557 WAT       -36.1820  -70.4160   -0.5830 O         1 <0>         0.0000
  16558 WAT       -36.1820  -70.4160   -0.3330 O         1 <0>         0.0000
  16559 WAT       -36.1820  -70.4160   -0.0830 O         1 <0>         0.0000
  16560 WAT       -36.1820  -70.1660   -9.8330 O         1 <0>         0.0000
  16561 WAT       -36.1820  -70.1660   -9.5830 O         1 <0>         0.0000
  16562 WAT       -36.1820  -70.1660   -9.3330 O         1 <0>         0.0000
  16563 WAT       -36.1820  -70.1660   -9.0830 O         1 <0>         0.0000
  16564 WAT       -36.1820  -70.1660   -8.8330 O         1 <0>         0.0000
  16565 WAT       -36.1820  -70.1660   -8.5830 O         1 <0>         0.0000
  16566 WAT       -36.1820  -70.1660   -8.3330 O         1 <0>         0.0000
  16567 WAT       -36.1820  -70.1660   -8.0830 O         1 <0>         0.0000
  16568 WAT       -36.1820  -70.1660   -7.8330 O         1 <0>         0.0000
  16569 WAT       -36.1820  -70.1660   -7.5830 O         1 <0>         0.0000
  16570 WAT       -36.1820  -70.1660   -7.3330 O         1 <0>         0.0000
  16571 WAT       -36.1820  -70.1660   -7.0830 O         1 <0>         0.0000
  16572 WAT       -36.1820  -70.1660   -6.8330 O         1 <0>         0.0000
  16573 WAT       -36.1820  -70.1660   -6.5830 O         1 <0>         0.0000
  16574 WAT       -36.1820  -70.1660   -6.3330 O         1 <0>         0.0000
  16575 WAT       -36.1820  -70.1660   -6.0830 O         1 <0>         0.0000
  16576 WAT       -36.1820  -70.1660   -5.8330 O         1 <0>         0.0000
  16577 WAT       -36.1820  -70.1660   -5.5830 O         1 <0>         0.0000
  16578 WAT       -36.1820  -70.1660   -5.3330 O         1 <0>         0.0000
  16579 WAT       -36.1820  -70.1660   -5.0830 O         1 <0>         0.0000
  16580 WAT       -36.1820  -70.1660   -4.8330 O         1 <0>         0.0000
  16581 WAT       -36.1820  -70.1660   -4.5830 O         1 <0>         0.0000
  16582 WAT       -36.1820  -70.1660   -4.3330 O         1 <0>         0.0000
  16583 WAT       -36.1820  -70.1660   -4.0830 O         1 <0>         0.0000
  16584 WAT       -36.1820  -70.1660   -3.8330 O         1 <0>         0.0000
  16585 WAT       -36.1820  -70.1660   -3.5830 O         1 <0>         0.0000
  16586 WAT       -36.1820  -70.1660   -3.3330 O         1 <0>         0.0000
  16587 WAT       -36.1820  -70.1660   -3.0830 O         1 <0>         0.0000
  16588 WAT       -36.1820  -70.1660   -2.8330 O         1 <0>         0.0000
  16589 WAT       -36.1820  -70.1660   -2.5830 O         1 <0>         0.0000
  16590 WAT       -36.1820  -70.1660   -2.3330 O         1 <0>         0.0000
  16591 WAT       -36.1820  -70.1660   -2.0830 O         1 <0>         0.0000
  16592 WAT       -36.1820  -70.1660   -1.8330 O         1 <0>         0.0000
  16593 WAT       -36.1820  -70.1660   -1.5830 O         1 <0>         0.0000
  16594 WAT       -36.1820  -70.1660   -1.3330 O         1 <0>         0.0000
  16595 WAT       -36.1820  -70.1660   -1.0830 O         1 <0>         0.0000
  16596 WAT       -36.1820  -70.1660   -0.8330 O         1 <0>         0.0000
  16597 WAT       -36.1820  -70.1660   -0.5830 O         1 <0>         0.0000
  16598 WAT       -36.1820  -70.1660   -0.3330 O         1 <0>         0.0000
  16599 WAT       -36.1820  -70.1660   -0.0830 O         1 <0>         0.0000
  16600 WAT       -36.1820  -69.9160   -9.8330 O         1 <0>         0.0000
  16601 WAT       -36.1820  -69.9160   -9.5830 O         1 <0>         0.0000
  16602 WAT       -36.1820  -69.9160   -9.3330 O         1 <0>         0.0000
  16603 WAT       -36.1820  -69.9160   -9.0830 O         1 <0>         0.0000
  16604 WAT       -36.1820  -69.9160   -8.8330 O         1 <0>         0.0000
  16605 WAT       -36.1820  -69.9160   -8.5830 O         1 <0>         0.0000
  16606 WAT       -36.1820  -69.9160   -8.3330 O         1 <0>         0.0000
  16607 WAT       -36.1820  -69.9160   -8.0830 O         1 <0>         0.0000
  16608 WAT       -36.1820  -69.9160   -7.8330 O         1 <0>         0.0000
  16609 WAT       -36.1820  -69.9160   -7.5830 O         1 <0>         0.0000
  16610 WAT       -36.1820  -69.9160   -7.3330 O         1 <0>         0.0000
  16611 WAT       -36.1820  -69.9160   -7.0830 O         1 <0>         0.0000
  16612 WAT       -36.1820  -69.9160   -6.8330 O         1 <0>         0.0000
  16613 WAT       -36.1820  -69.9160   -6.5830 O         1 <0>         0.0000
  16614 WAT       -36.1820  -69.9160   -6.3330 O         1 <0>         0.0000
  16615 WAT       -36.1820  -69.9160   -6.0830 O         1 <0>         0.0000
  16616 WAT       -36.1820  -69.9160   -5.8330 O         1 <0>         0.0000
  16617 WAT       -36.1820  -69.9160   -5.5830 O         1 <0>         0.0000
  16618 WAT       -36.1820  -69.9160   -5.3330 O         1 <0>         0.0000
  16619 WAT       -36.1820  -69.9160   -5.0830 O         1 <0>         0.0000
  16620 WAT       -36.1820  -69.9160   -4.8330 O         1 <0>         0.0000
  16621 WAT       -36.1820  -69.9160   -4.5830 O         1 <0>         0.0000
  16622 WAT       -36.1820  -69.9160   -4.3330 O         1 <0>         0.0000
  16623 WAT       -36.1820  -69.9160   -4.0830 O         1 <0>         0.0000
  16624 WAT       -36.1820  -69.9160   -3.8330 O         1 <0>         0.0000
  16625 WAT       -36.1820  -69.9160   -3.5830 O         1 <0>         0.0000
  16626 WAT       -36.1820  -69.9160   -3.3330 O         1 <0>         0.0000
  16627 WAT       -36.1820  -69.9160   -3.0830 O         1 <0>         0.0000
  16628 WAT       -36.1820  -69.9160   -2.8330 O         1 <0>         0.0000
  16629 WAT       -36.1820  -69.9160   -2.5830 O         1 <0>         0.0000
  16630 WAT       -36.1820  -69.9160   -2.3330 O         1 <0>         0.0000
  16631 WAT       -36.1820  -69.9160   -2.0830 O         1 <0>         0.0000
  16632 WAT       -36.1820  -69.9160   -1.8330 O         1 <0>         0.0000
  16633 WAT       -36.1820  -69.9160   -1.5830 O         1 <0>         0.0000
  16634 WAT       -36.1820  -69.9160   -1.3330 O         1 <0>         0.0000
  16635 WAT       -36.1820  -69.9160   -1.0830 O         1 <0>         0.0000
  16636 WAT       -36.1820  -69.9160   -0.8330 O         1 <0>         0.0000
  16637 WAT       -36.1820  -69.9160   -0.5830 O         1 <0>         0.0000
  16638 WAT       -36.1820  -69.9160   -0.3330 O         1 <0>         0.0000
  16639 WAT       -36.1820  -69.9160   -0.0830 O         1 <0>         0.0000
  16640 WAT       -36.1820  -69.6660   -9.8330 O         1 <0>         0.0000
  16641 WAT       -36.1820  -69.6660   -9.5830 O         1 <0>         0.0000
  16642 WAT       -36.1820  -69.6660   -9.3330 O         1 <0>         0.0000
  16643 WAT       -36.1820  -69.6660   -9.0830 O         1 <0>         0.0000
  16644 WAT       -36.1820  -69.6660   -8.8330 O         1 <0>         0.0000
  16645 WAT       -36.1820  -69.6660   -8.5830 O         1 <0>         0.0000
  16646 WAT       -36.1820  -69.6660   -8.3330 O         1 <0>         0.0000
  16647 WAT       -36.1820  -69.6660   -8.0830 O         1 <0>         0.0000
  16648 WAT       -36.1820  -69.6660   -7.8330 O         1 <0>         0.0000
  16649 WAT       -36.1820  -69.6660   -7.5830 O         1 <0>         0.0000
  16650 WAT       -36.1820  -69.6660   -7.3330 O         1 <0>         0.0000
  16651 WAT       -36.1820  -69.6660   -7.0830 O         1 <0>         0.0000
  16652 WAT       -36.1820  -69.6660   -6.8330 O         1 <0>         0.0000
  16653 WAT       -36.1820  -69.6660   -6.5830 O         1 <0>         0.0000
  16654 WAT       -36.1820  -69.6660   -6.3330 O         1 <0>         0.0000
  16655 WAT       -36.1820  -69.6660   -6.0830 O         1 <0>         0.0000
  16656 WAT       -36.1820  -69.6660   -5.8330 O         1 <0>         0.0000
  16657 WAT       -36.1820  -69.6660   -5.5830 O         1 <0>         0.0000
  16658 WAT       -36.1820  -69.6660   -5.3330 O         1 <0>         0.0000
  16659 WAT       -36.1820  -69.6660   -5.0830 O         1 <0>         0.0000
  16660 WAT       -36.1820  -69.6660   -4.8330 O         1 <0>         0.0000
  16661 WAT       -36.1820  -69.6660   -4.5830 O         1 <0>         0.0000
  16662 WAT       -36.1820  -69.6660   -4.3330 O         1 <0>         0.0000
  16663 WAT       -36.1820  -69.6660   -4.0830 O         1 <0>         0.0000
  16664 WAT       -36.1820  -69.6660   -3.8330 O         1 <0>         0.0000
  16665 WAT       -36.1820  -69.6660   -3.5830 O         1 <0>         0.0000
  16666 WAT       -36.1820  -69.6660   -3.3330 O         1 <0>         0.0000
  16667 WAT       -36.1820  -69.6660   -3.0830 O         1 <0>         0.0000
  16668 WAT       -36.1820  -69.6660   -2.8330 O         1 <0>         0.0000
  16669 WAT       -36.1820  -69.6660   -2.5830 O         1 <0>         0.0000
  16670 WAT       -36.1820  -69.6660   -2.3330 O         1 <0>         0.0000
  16671 WAT       -36.1820  -69.6660   -2.0830 O         1 <0>         0.0000
  16672 WAT       -36.1820  -69.6660   -1.8330 O         1 <0>         0.0000
  16673 WAT       -36.1820  -69.6660   -1.5830 O         1 <0>         0.0000
  16674 WAT       -36.1820  -69.6660   -1.3330 O         1 <0>         0.0000
  16675 WAT       -36.1820  -69.6660   -1.0830 O         1 <0>         0.0000
  16676 WAT       -36.1820  -69.6660   -0.8330 O         1 <0>         0.0000
  16677 WAT       -36.1820  -69.6660   -0.5830 O         1 <0>         0.0000
  16678 WAT       -36.1820  -69.6660   -0.3330 O         1 <0>         0.0000
  16679 WAT       -36.1820  -69.6660   -0.0830 O         1 <0>         0.0000
  16680 WAT       -36.1820  -69.4160   -9.8330 O         1 <0>         0.0000
  16681 WAT       -36.1820  -69.4160   -9.5830 O         1 <0>         0.0000
  16682 WAT       -36.1820  -69.4160   -9.3330 O         1 <0>         0.0000
  16683 WAT       -36.1820  -69.4160   -9.0830 O         1 <0>         0.0000
  16684 WAT       -36.1820  -69.4160   -8.8330 O         1 <0>         0.0000
  16685 WAT       -36.1820  -69.4160   -8.5830 O         1 <0>         0.0000
  16686 WAT       -36.1820  -69.4160   -8.3330 O         1 <0>         0.0000
  16687 WAT       -36.1820  -69.4160   -8.0830 O         1 <0>         0.0000
  16688 WAT       -36.1820  -69.4160   -7.8330 O         1 <0>         0.0000
  16689 WAT       -36.1820  -69.4160   -7.5830 O         1 <0>         0.0000
  16690 WAT       -36.1820  -69.4160   -7.3330 O         1 <0>         0.0000
  16691 WAT       -36.1820  -69.4160   -7.0830 O         1 <0>         0.0000
  16692 WAT       -36.1820  -69.4160   -6.8330 O         1 <0>         0.0000
  16693 WAT       -36.1820  -69.4160   -6.5830 O         1 <0>         0.0000
  16694 WAT       -36.1820  -69.4160   -6.3330 O         1 <0>         0.0000
  16695 WAT       -36.1820  -69.4160   -6.0830 O         1 <0>         0.0000
  16696 WAT       -36.1820  -69.4160   -5.8330 O         1 <0>         0.0000
  16697 WAT       -36.1820  -69.4160   -5.5830 O         1 <0>         0.0000
  16698 WAT       -36.1820  -69.4160   -5.3330 O         1 <0>         0.0000
  16699 WAT       -36.1820  -69.4160   -5.0830 O         1 <0>         0.0000
  16700 WAT       -36.1820  -69.4160   -4.8330 O         1 <0>         0.0000
  16701 WAT       -36.1820  -69.4160   -4.5830 O         1 <0>         0.0000
  16702 WAT       -36.1820  -69.4160   -4.3330 O         1 <0>         0.0000
  16703 WAT       -36.1820  -69.4160   -4.0830 O         1 <0>         0.0000
  16704 WAT       -36.1820  -69.4160   -3.8330 O         1 <0>         0.0000
  16705 WAT       -36.1820  -69.4160   -3.5830 O         1 <0>         0.0000
  16706 WAT       -36.1820  -69.4160   -3.3330 O         1 <0>         0.0000
  16707 WAT       -36.1820  -69.4160   -3.0830 O         1 <0>         0.0000
  16708 WAT       -36.1820  -69.4160   -2.8330 O         1 <0>         0.0000
  16709 WAT       -36.1820  -69.4160   -2.5830 O         1 <0>         0.0000
  16710 WAT       -36.1820  -69.4160   -2.3330 O         1 <0>         0.0000
  16711 WAT       -36.1820  -69.4160   -2.0830 O         1 <0>         0.0000
  16712 WAT       -36.1820  -69.4160   -1.8330 O         1 <0>         0.0000
  16713 WAT       -36.1820  -69.4160   -1.5830 O         1 <0>         0.0000
  16714 WAT       -36.1820  -69.4160   -1.3330 O         1 <0>         0.0000
  16715 WAT       -36.1820  -69.4160   -1.0830 O         1 <0>         0.0000
  16716 WAT       -36.1820  -69.4160   -0.8330 O         1 <0>         0.0000
  16717 WAT       -36.1820  -69.4160   -0.5830 O         1 <0>         0.0000
  16718 WAT       -36.1820  -69.4160   -0.3330 O         1 <0>         0.0000
  16719 WAT       -36.1820  -69.4160   -0.0830 O         1 <0>         0.0000
  16720 WAT       -36.1820  -69.1660   -9.8330 O         1 <0>         0.0000
  16721 WAT       -36.1820  -69.1660   -9.5830 O         1 <0>         0.0000
  16722 WAT       -36.1820  -69.1660   -9.3330 O         1 <0>         0.0000
  16723 WAT       -36.1820  -69.1660   -9.0830 O         1 <0>         0.0000
  16724 WAT       -36.1820  -69.1660   -8.8330 O         1 <0>         0.0000
  16725 WAT       -36.1820  -69.1660   -8.5830 O         1 <0>         0.0000
  16726 WAT       -36.1820  -69.1660   -8.3330 O         1 <0>         0.0000
  16727 WAT       -36.1820  -69.1660   -8.0830 O         1 <0>         0.0000
  16728 WAT       -36.1820  -69.1660   -7.8330 O         1 <0>         0.0000
  16729 WAT       -36.1820  -69.1660   -7.5830 O         1 <0>         0.0000
  16730 WAT       -36.1820  -69.1660   -7.3330 O         1 <0>         0.0000
  16731 WAT       -36.1820  -69.1660   -7.0830 O         1 <0>         0.0000
  16732 WAT       -36.1820  -69.1660   -6.8330 O         1 <0>         0.0000
  16733 WAT       -36.1820  -69.1660   -6.5830 O         1 <0>         0.0000
  16734 WAT       -36.1820  -69.1660   -6.3330 O         1 <0>         0.0000
  16735 WAT       -36.1820  -69.1660   -6.0830 O         1 <0>         0.0000
  16736 WAT       -36.1820  -69.1660   -5.8330 O         1 <0>         0.0000
  16737 WAT       -36.1820  -69.1660   -5.5830 O         1 <0>         0.0000
  16738 WAT       -36.1820  -69.1660   -5.3330 O         1 <0>         0.0000
  16739 WAT       -36.1820  -69.1660   -5.0830 O         1 <0>         0.0000
  16740 WAT       -36.1820  -69.1660   -4.8330 O         1 <0>         0.0000
  16741 WAT       -36.1820  -69.1660   -4.5830 O         1 <0>         0.0000
  16742 WAT       -36.1820  -69.1660   -4.3330 O         1 <0>         0.0000
  16743 WAT       -36.1820  -69.1660   -4.0830 O         1 <0>         0.0000
  16744 WAT       -36.1820  -69.1660   -3.8330 O         1 <0>         0.0000
  16745 WAT       -36.1820  -69.1660   -3.5830 O         1 <0>         0.0000
  16746 WAT       -36.1820  -69.1660   -3.3330 O         1 <0>         0.0000
  16747 WAT       -36.1820  -69.1660   -3.0830 O         1 <0>         0.0000
  16748 WAT       -36.1820  -69.1660   -2.8330 O         1 <0>         0.0000
  16749 WAT       -36.1820  -69.1660   -2.5830 O         1 <0>         0.0000
  16750 WAT       -36.1820  -69.1660   -2.3330 O         1 <0>         0.0000
  16751 WAT       -36.1820  -69.1660   -2.0830 O         1 <0>         0.0000
  16752 WAT       -36.1820  -69.1660   -1.8330 O         1 <0>         0.0000
  16753 WAT       -36.1820  -69.1660   -1.5830 O         1 <0>         0.0000
  16754 WAT       -36.1820  -69.1660   -1.3330 O         1 <0>         0.0000
  16755 WAT       -36.1820  -69.1660   -1.0830 O         1 <0>         0.0000
  16756 WAT       -36.1820  -69.1660   -0.8330 O         1 <0>         0.0000
  16757 WAT       -36.1820  -69.1660   -0.5830 O         1 <0>         0.0000
  16758 WAT       -36.1820  -69.1660   -0.3330 O         1 <0>         0.0000
  16759 WAT       -36.1820  -69.1660   -0.0830 O         1 <0>         0.0000
  16760 WAT       -36.1820  -68.9160   -9.8330 O         1 <0>         0.0000
  16761 WAT       -36.1820  -68.9160   -9.5830 O         1 <0>         0.0000
  16762 WAT       -36.1820  -68.9160   -9.3330 O         1 <0>         0.0000
  16763 WAT       -36.1820  -68.9160   -9.0830 O         1 <0>         0.0000
  16764 WAT       -36.1820  -68.9160   -8.8330 O         1 <0>         0.0000
  16765 WAT       -36.1820  -68.9160   -8.5830 O         1 <0>         0.0000
  16766 WAT       -36.1820  -68.9160   -8.3330 O         1 <0>         0.0000
  16767 WAT       -36.1820  -68.9160   -8.0830 O         1 <0>         0.0000
  16768 WAT       -36.1820  -68.9160   -7.8330 O         1 <0>         0.0000
  16769 WAT       -36.1820  -68.9160   -7.5830 O         1 <0>         0.0000
  16770 WAT       -36.1820  -68.9160   -7.3330 O         1 <0>         0.0000
  16771 WAT       -36.1820  -68.9160   -7.0830 O         1 <0>         0.0000
  16772 WAT       -36.1820  -68.9160   -6.8330 O         1 <0>         0.0000
  16773 WAT       -36.1820  -68.9160   -6.5830 O         1 <0>         0.0000
  16774 WAT       -36.1820  -68.9160   -6.3330 O         1 <0>         0.0000
  16775 WAT       -36.1820  -68.9160   -6.0830 O         1 <0>         0.0000
  16776 WAT       -36.1820  -68.9160   -5.8330 O         1 <0>         0.0000
  16777 WAT       -36.1820  -68.9160   -5.5830 O         1 <0>         0.0000
  16778 WAT       -36.1820  -68.9160   -5.3330 O         1 <0>         0.0000
  16779 WAT       -36.1820  -68.9160   -5.0830 O         1 <0>         0.0000
  16780 WAT       -36.1820  -68.9160   -4.8330 O         1 <0>         0.0000
  16781 WAT       -36.1820  -68.9160   -4.5830 O         1 <0>         0.0000
  16782 WAT       -36.1820  -68.9160   -4.3330 O         1 <0>         0.0000
  16783 WAT       -36.1820  -68.9160   -4.0830 O         1 <0>         0.0000
  16784 WAT       -36.1820  -68.9160   -3.8330 O         1 <0>         0.0000
  16785 WAT       -36.1820  -68.9160   -3.5830 O         1 <0>         0.0000
  16786 WAT       -36.1820  -68.9160   -3.3330 O         1 <0>         0.0000
  16787 WAT       -36.1820  -68.9160   -3.0830 O         1 <0>         0.0000
  16788 WAT       -36.1820  -68.9160   -2.8330 O         1 <0>         0.0000
  16789 WAT       -36.1820  -68.9160   -2.5830 O         1 <0>         0.0000
  16790 WAT       -36.1820  -68.9160   -2.3330 O         1 <0>         0.0000
  16791 WAT       -36.1820  -68.9160   -2.0830 O         1 <0>         0.0000
  16792 WAT       -36.1820  -68.9160   -1.8330 O         1 <0>         0.0000
  16793 WAT       -36.1820  -68.9160   -1.5830 O         1 <0>         0.0000
  16794 WAT       -36.1820  -68.9160   -1.3330 O         1 <0>         0.0000
  16795 WAT       -36.1820  -68.9160   -1.0830 O         1 <0>         0.0000
  16796 WAT       -36.1820  -68.9160   -0.8330 O         1 <0>         0.0000
  16797 WAT       -36.1820  -68.9160   -0.5830 O         1 <0>         0.0000
  16798 WAT       -36.1820  -68.9160   -0.3330 O         1 <0>         0.0000
  16799 WAT       -36.1820  -68.9160   -0.0830 O         1 <0>         0.0000
  16800 WAT       -35.9320  -77.4160   -9.8330 O         1 <0>         0.0000
  16801 WAT       -35.9320  -77.4160   -9.5830 O         1 <0>         0.0000
  16802 WAT       -35.9320  -77.4160   -9.3330 O         1 <0>         0.0000
  16803 WAT       -35.9320  -77.4160   -9.0830 O         1 <0>         0.0000
  16804 WAT       -35.9320  -77.4160   -8.8330 O         1 <0>         0.0000
  16805 WAT       -35.9320  -77.4160   -8.5830 O         1 <0>         0.0000
  16806 WAT       -35.9320  -77.4160   -8.3330 O         1 <0>         0.0000
  16807 WAT       -35.9320  -77.4160   -8.0830 O         1 <0>         0.0000
  16808 WAT       -35.9320  -77.4160   -7.8330 O         1 <0>         0.0000
  16809 WAT       -35.9320  -77.4160   -7.5830 O         1 <0>         0.0000
  16810 WAT       -35.9320  -77.4160   -7.3330 O         1 <0>         0.0000
  16811 WAT       -35.9320  -77.4160   -7.0830 O         1 <0>         0.0000
  16812 WAT       -35.9320  -77.4160   -6.8330 O         1 <0>         0.0000
  16813 WAT       -35.9320  -77.4160   -6.5830 O         1 <0>         0.0000
  16814 WAT       -35.9320  -77.4160   -6.3330 O         1 <0>         0.0000
  16815 WAT       -35.9320  -77.4160   -6.0830 O         1 <0>         0.0000
  16816 WAT       -35.9320  -77.4160   -5.8330 O         1 <0>         0.0000
  16817 WAT       -35.9320  -77.4160   -5.5830 O         1 <0>         0.0000
  16818 WAT       -35.9320  -77.4160   -5.3330 O         1 <0>         0.0000
  16819 WAT       -35.9320  -77.4160   -5.0830 O         1 <0>         0.0000
  16820 WAT       -35.9320  -77.4160   -4.8330 O         1 <0>         0.0000
  16821 WAT       -35.9320  -77.4160   -4.5830 O         1 <0>         0.0000
  16822 WAT       -35.9320  -77.4160   -4.3330 O         1 <0>         0.0000
  16823 WAT       -35.9320  -77.4160   -4.0830 O         1 <0>         0.0000
  16824 WAT       -35.9320  -77.4160   -3.8330 O         1 <0>         0.0000
  16825 WAT       -35.9320  -77.4160   -3.5830 O         1 <0>         0.0000
  16826 WAT       -35.9320  -77.4160   -3.3330 O         1 <0>         0.0000
  16827 WAT       -35.9320  -77.4160   -3.0830 O         1 <0>         0.0000
  16828 WAT       -35.9320  -77.4160   -2.8330 O         1 <0>         0.0000
  16829 WAT       -35.9320  -77.4160   -2.5830 O         1 <0>         0.0000
  16830 WAT       -35.9320  -77.4160   -2.3330 O         1 <0>         0.0000
  16831 WAT       -35.9320  -77.4160   -2.0830 O         1 <0>         0.0000
  16832 WAT       -35.9320  -77.4160   -1.8330 O         1 <0>         0.0000
  16833 WAT       -35.9320  -77.4160   -1.5830 O         1 <0>         0.0000
  16834 WAT       -35.9320  -77.4160   -1.3330 O         1 <0>         0.0000
  16835 WAT       -35.9320  -77.4160   -1.0830 O         1 <0>         0.0000
  16836 WAT       -35.9320  -77.4160   -0.8330 O         1 <0>         0.0000
  16837 WAT       -35.9320  -77.4160   -0.5830 O         1 <0>         0.0000
  16838 WAT       -35.9320  -77.4160   -0.3330 O         1 <0>         0.0000
  16839 WAT       -35.9320  -77.4160   -0.0830 O         1 <0>         0.0000
  16840 WAT       -35.9320  -77.1660   -9.8330 O         1 <0>         0.0000
  16841 WAT       -35.9320  -77.1660   -9.5830 O         1 <0>         0.0000
  16842 WAT       -35.9320  -77.1660   -9.3330 O         1 <0>         0.0000
  16843 WAT       -35.9320  -77.1660   -9.0830 O         1 <0>         0.0000
  16844 WAT       -35.9320  -77.1660   -8.8330 O         1 <0>         0.0000
  16845 WAT       -35.9320  -77.1660   -8.5830 O         1 <0>         0.0000
  16846 WAT       -35.9320  -77.1660   -8.3330 O         1 <0>         0.0000
  16847 WAT       -35.9320  -77.1660   -8.0830 O         1 <0>         0.0000
  16848 WAT       -35.9320  -77.1660   -7.8330 O         1 <0>         0.0000
  16849 WAT       -35.9320  -77.1660   -7.5830 O         1 <0>         0.0000
  16850 WAT       -35.9320  -77.1660   -7.3330 O         1 <0>         0.0000
  16851 WAT       -35.9320  -77.1660   -7.0830 O         1 <0>         0.0000
  16852 WAT       -35.9320  -77.1660   -6.8330 O         1 <0>         0.0000
  16853 WAT       -35.9320  -77.1660   -6.5830 O         1 <0>         0.0000
  16854 WAT       -35.9320  -77.1660   -6.3330 O         1 <0>         0.0000
  16855 WAT       -35.9320  -77.1660   -6.0830 O         1 <0>         0.0000
  16856 WAT       -35.9320  -77.1660   -5.8330 O         1 <0>         0.0000
  16857 WAT       -35.9320  -77.1660   -5.5830 O         1 <0>         0.0000
  16858 WAT       -35.9320  -77.1660   -5.3330 O         1 <0>         0.0000
  16859 WAT       -35.9320  -77.1660   -5.0830 O         1 <0>         0.0000
  16860 WAT       -35.9320  -77.1660   -4.8330 O         1 <0>         0.0000
  16861 WAT       -35.9320  -77.1660   -4.5830 O         1 <0>         0.0000
  16862 WAT       -35.9320  -77.1660   -4.3330 O         1 <0>         0.0000
  16863 WAT       -35.9320  -77.1660   -4.0830 O         1 <0>         0.0000
  16864 WAT       -35.9320  -77.1660   -3.8330 O         1 <0>         0.0000
  16865 WAT       -35.9320  -77.1660   -3.5830 O         1 <0>         0.0000
  16866 WAT       -35.9320  -77.1660   -3.3330 O         1 <0>         0.0000
  16867 WAT       -35.9320  -77.1660   -3.0830 O         1 <0>         0.0000
  16868 WAT       -35.9320  -77.1660   -2.8330 O         1 <0>         0.0000
  16869 WAT       -35.9320  -77.1660   -2.5830 O         1 <0>         0.0000
  16870 WAT       -35.9320  -77.1660   -2.3330 O         1 <0>         0.0000
  16871 WAT       -35.9320  -77.1660   -2.0830 O         1 <0>         0.0000
  16872 WAT       -35.9320  -77.1660   -1.8330 O         1 <0>         0.0000
  16873 WAT       -35.9320  -77.1660   -1.5830 O         1 <0>         0.0000
  16874 WAT       -35.9320  -77.1660   -1.3330 O         1 <0>         0.0000
  16875 WAT       -35.9320  -77.1660   -1.0830 O         1 <0>         0.0000
  16876 WAT       -35.9320  -77.1660   -0.8330 O         1 <0>         0.0000
  16877 WAT       -35.9320  -77.1660   -0.5830 O         1 <0>         0.0000
  16878 WAT       -35.9320  -77.1660   -0.3330 O         1 <0>         0.0000
  16879 WAT       -35.9320  -77.1660   -0.0830 O         1 <0>         0.0000
  16880 WAT       -35.9320  -76.9160   -9.8330 O         1 <0>         0.0000
  16881 WAT       -35.9320  -76.9160   -9.5830 O         1 <0>         0.0000
  16882 WAT       -35.9320  -76.9160   -9.3330 O         1 <0>         0.0000
  16883 WAT       -35.9320  -76.9160   -9.0830 O         1 <0>         0.0000
  16884 WAT       -35.9320  -76.9160   -8.8330 O         1 <0>         0.0000
  16885 WAT       -35.9320  -76.9160   -8.5830 O         1 <0>         0.0000
  16886 WAT       -35.9320  -76.9160   -8.3330 O         1 <0>         0.0000
  16887 WAT       -35.9320  -76.9160   -8.0830 O         1 <0>         0.0000
  16888 WAT       -35.9320  -76.9160   -7.8330 O         1 <0>         0.0000
  16889 WAT       -35.9320  -76.9160   -7.5830 O         1 <0>         0.0000
  16890 WAT       -35.9320  -76.9160   -7.3330 O         1 <0>         0.0000
  16891 WAT       -35.9320  -76.9160   -7.0830 O         1 <0>         0.0000
  16892 WAT       -35.9320  -76.9160   -6.8330 O         1 <0>         0.0000
  16893 WAT       -35.9320  -76.9160   -6.5830 O         1 <0>         0.0000
  16894 WAT       -35.9320  -76.9160   -6.3330 O         1 <0>         0.0000
  16895 WAT       -35.9320  -76.9160   -6.0830 O         1 <0>         0.0000
  16896 WAT       -35.9320  -76.9160   -5.8330 O         1 <0>         0.0000
  16897 WAT       -35.9320  -76.9160   -5.5830 O         1 <0>         0.0000
  16898 WAT       -35.9320  -76.9160   -5.3330 O         1 <0>         0.0000
  16899 WAT       -35.9320  -76.9160   -5.0830 O         1 <0>         0.0000
  16900 WAT       -35.9320  -76.9160   -4.8330 O         1 <0>         0.0000
  16901 WAT       -35.9320  -76.9160   -4.5830 O         1 <0>         0.0000
  16902 WAT       -35.9320  -76.9160   -4.3330 O         1 <0>         0.0000
  16903 WAT       -35.9320  -76.9160   -4.0830 O         1 <0>         0.0000
  16904 WAT       -35.9320  -76.9160   -3.8330 O         1 <0>         0.0000
  16905 WAT       -35.9320  -76.9160   -3.5830 O         1 <0>         0.0000
  16906 WAT       -35.9320  -76.9160   -3.3330 O         1 <0>         0.0000
  16907 WAT       -35.9320  -76.9160   -3.0830 O         1 <0>         0.0000
  16908 WAT       -35.9320  -76.9160   -2.8330 O         1 <0>         0.0000
  16909 WAT       -35.9320  -76.9160   -2.5830 O         1 <0>         0.0000
  16910 WAT       -35.9320  -76.9160   -2.3330 O         1 <0>         0.0000
  16911 WAT       -35.9320  -76.9160   -2.0830 O         1 <0>         0.0000
  16912 WAT       -35.9320  -76.9160   -1.8330 O         1 <0>         0.0000
  16913 WAT       -35.9320  -76.9160   -1.5830 O         1 <0>         0.0000
  16914 WAT       -35.9320  -76.9160   -1.3330 O         1 <0>         0.0000
  16915 WAT       -35.9320  -76.9160   -1.0830 O         1 <0>         0.0000
  16916 WAT       -35.9320  -76.9160   -0.8330 O         1 <0>         0.0000
  16917 WAT       -35.9320  -76.9160   -0.5830 O         1 <0>         0.0000
  16918 WAT       -35.9320  -76.9160   -0.3330 O         1 <0>         0.0000
  16919 WAT       -35.9320  -76.9160   -0.0830 O         1 <0>         0.0000
  16920 WAT       -35.9320  -76.6660   -9.8330 O         1 <0>         0.0000
  16921 WAT       -35.9320  -76.6660   -9.5830 O         1 <0>         0.0000
  16922 WAT       -35.9320  -76.6660   -9.3330 O         1 <0>         0.0000
  16923 WAT       -35.9320  -76.6660   -9.0830 O         1 <0>         0.0000
  16924 WAT       -35.9320  -76.6660   -8.8330 O         1 <0>         0.0000
  16925 WAT       -35.9320  -76.6660   -8.5830 O         1 <0>         0.0000
  16926 WAT       -35.9320  -76.6660   -8.3330 O         1 <0>         0.0000
  16927 WAT       -35.9320  -76.6660   -8.0830 O         1 <0>         0.0000
  16928 WAT       -35.9320  -76.6660   -7.8330 O         1 <0>         0.0000
  16929 WAT       -35.9320  -76.6660   -7.5830 O         1 <0>         0.0000
  16930 WAT       -35.9320  -76.6660   -7.3330 O         1 <0>         0.0000
  16931 WAT       -35.9320  -76.6660   -7.0830 O         1 <0>         0.0000
  16932 WAT       -35.9320  -76.6660   -6.8330 O         1 <0>         0.0000
  16933 WAT       -35.9320  -76.6660   -6.5830 O         1 <0>         0.0000
  16934 WAT       -35.9320  -76.6660   -6.3330 O         1 <0>         0.0000
  16935 WAT       -35.9320  -76.6660   -6.0830 O         1 <0>         0.0000
  16936 WAT       -35.9320  -76.6660   -5.8330 O         1 <0>         0.0000
  16937 WAT       -35.9320  -76.6660   -5.5830 O         1 <0>         0.0000
  16938 WAT       -35.9320  -76.6660   -5.3330 O         1 <0>         0.0000
  16939 WAT       -35.9320  -76.6660   -5.0830 O         1 <0>         0.0000
  16940 WAT       -35.9320  -76.6660   -4.8330 O         1 <0>         0.0000
  16941 WAT       -35.9320  -76.6660   -4.5830 O         1 <0>         0.0000
  16942 WAT       -35.9320  -76.6660   -4.3330 O         1 <0>         0.0000
  16943 WAT       -35.9320  -76.6660   -4.0830 O         1 <0>         0.0000
  16944 WAT       -35.9320  -76.6660   -3.8330 O         1 <0>         0.0000
  16945 WAT       -35.9320  -76.6660   -3.5830 O         1 <0>         0.0000
  16946 WAT       -35.9320  -76.6660   -3.3330 O         1 <0>         0.0000
  16947 WAT       -35.9320  -76.6660   -3.0830 O         1 <0>         0.0000
  16948 WAT       -35.9320  -76.6660   -2.8330 O         1 <0>         0.0000
  16949 WAT       -35.9320  -76.6660   -2.5830 O         1 <0>         0.0000
  16950 WAT       -35.9320  -76.6660   -2.3330 O         1 <0>         0.0000
  16951 WAT       -35.9320  -76.6660   -2.0830 O         1 <0>         0.0000
  16952 WAT       -35.9320  -76.6660   -1.8330 O         1 <0>         0.0000
  16953 WAT       -35.9320  -76.6660   -1.5830 O         1 <0>         0.0000
  16954 WAT       -35.9320  -76.6660   -1.3330 O         1 <0>         0.0000
  16955 WAT       -35.9320  -76.6660   -1.0830 O         1 <0>         0.0000
  16956 WAT       -35.9320  -76.6660   -0.8330 O         1 <0>         0.0000
  16957 WAT       -35.9320  -76.6660   -0.5830 O         1 <0>         0.0000
  16958 WAT       -35.9320  -76.6660   -0.3330 O         1 <0>         0.0000
  16959 WAT       -35.9320  -76.6660   -0.0830 O         1 <0>         0.0000
  16960 WAT       -35.9320  -76.4160   -9.8330 O         1 <0>         0.0000
  16961 WAT       -35.9320  -76.4160   -9.5830 O         1 <0>         0.0000
  16962 WAT       -35.9320  -76.4160   -9.3330 O         1 <0>         0.0000
  16963 WAT       -35.9320  -76.4160   -9.0830 O         1 <0>         0.0000
  16964 WAT       -35.9320  -76.4160   -8.8330 O         1 <0>         0.0000
  16965 WAT       -35.9320  -76.4160   -8.5830 O         1 <0>         0.0000
  16966 WAT       -35.9320  -76.4160   -8.3330 O         1 <0>         0.0000
  16967 WAT       -35.9320  -76.4160   -8.0830 O         1 <0>         0.0000
  16968 WAT       -35.9320  -76.4160   -7.8330 O         1 <0>         0.0000
  16969 WAT       -35.9320  -76.4160   -7.5830 O         1 <0>         0.0000
  16970 WAT       -35.9320  -76.4160   -7.3330 O         1 <0>         0.0000
  16971 WAT       -35.9320  -76.4160   -7.0830 O         1 <0>         0.0000
  16972 WAT       -35.9320  -76.4160   -6.8330 O         1 <0>         0.0000
  16973 WAT       -35.9320  -76.4160   -6.5830 O         1 <0>         0.0000
  16974 WAT       -35.9320  -76.4160   -6.3330 O         1 <0>         0.0000
  16975 WAT       -35.9320  -76.4160   -6.0830 O         1 <0>         0.0000
  16976 WAT       -35.9320  -76.4160   -5.8330 O         1 <0>         0.0000
  16977 WAT       -35.9320  -76.4160   -5.5830 O         1 <0>         0.0000
  16978 WAT       -35.9320  -76.4160   -5.3330 O         1 <0>         0.0000
  16979 WAT       -35.9320  -76.4160   -5.0830 O         1 <0>         0.0000
  16980 WAT       -35.9320  -76.4160   -4.8330 O         1 <0>         0.0000
  16981 WAT       -35.9320  -76.4160   -4.5830 O         1 <0>         0.0000
  16982 WAT       -35.9320  -76.4160   -4.3330 O         1 <0>         0.0000
  16983 WAT       -35.9320  -76.4160   -4.0830 O         1 <0>         0.0000
  16984 WAT       -35.9320  -76.4160   -3.8330 O         1 <0>         0.0000
  16985 WAT       -35.9320  -76.4160   -3.5830 O         1 <0>         0.0000
  16986 WAT       -35.9320  -76.4160   -3.3330 O         1 <0>         0.0000
  16987 WAT       -35.9320  -76.4160   -3.0830 O         1 <0>         0.0000
  16988 WAT       -35.9320  -76.4160   -2.8330 O         1 <0>         0.0000
  16989 WAT       -35.9320  -76.4160   -2.5830 O         1 <0>         0.0000
  16990 WAT       -35.9320  -76.4160   -2.3330 O         1 <0>         0.0000
  16991 WAT       -35.9320  -76.4160   -2.0830 O         1 <0>         0.0000
  16992 WAT       -35.9320  -76.4160   -1.8330 O         1 <0>         0.0000
  16993 WAT       -35.9320  -76.4160   -1.5830 O         1 <0>         0.0000
  16994 WAT       -35.9320  -76.4160   -1.3330 O         1 <0>         0.0000
  16995 WAT       -35.9320  -76.4160   -1.0830 O         1 <0>         0.0000
  16996 WAT       -35.9320  -76.4160   -0.8330 O         1 <0>         0.0000
  16997 WAT       -35.9320  -76.4160   -0.5830 O         1 <0>         0.0000
  16998 WAT       -35.9320  -76.4160   -0.3330 O         1 <0>         0.0000
  16999 WAT       -35.9320  -76.4160   -0.0830 O         1 <0>         0.0000
  17000 WAT       -35.9320  -76.1660   -9.8330 O         1 <0>         0.0000
  17001 WAT       -35.9320  -76.1660   -9.5830 O         1 <0>         0.0000
  17002 WAT       -35.9320  -76.1660   -9.3330 O         1 <0>         0.0000
  17003 WAT       -35.9320  -76.1660   -9.0830 O         1 <0>         0.0000
  17004 WAT       -35.9320  -76.1660   -8.8330 O         1 <0>         0.0000
  17005 WAT       -35.9320  -76.1660   -8.5830 O         1 <0>         0.0000
  17006 WAT       -35.9320  -76.1660   -8.3330 O         1 <0>         0.0000
  17007 WAT       -35.9320  -76.1660   -8.0830 O         1 <0>         0.0000
  17008 WAT       -35.9320  -76.1660   -7.8330 O         1 <0>         0.0000
  17009 WAT       -35.9320  -76.1660   -7.5830 O         1 <0>         0.0000
  17010 WAT       -35.9320  -76.1660   -7.3330 O         1 <0>         0.0000
  17011 WAT       -35.9320  -76.1660   -7.0830 O         1 <0>         0.0000
  17012 WAT       -35.9320  -76.1660   -6.8330 O         1 <0>         0.0000
  17013 WAT       -35.9320  -76.1660   -6.5830 O         1 <0>         0.0000
  17014 WAT       -35.9320  -76.1660   -6.3330 O         1 <0>         0.0000
  17015 WAT       -35.9320  -76.1660   -6.0830 O         1 <0>         0.0000
  17016 WAT       -35.9320  -76.1660   -5.8330 O         1 <0>         0.0000
  17017 WAT       -35.9320  -76.1660   -5.5830 O         1 <0>         0.0000
  17018 WAT       -35.9320  -76.1660   -5.3330 O         1 <0>         0.0000
  17019 WAT       -35.9320  -76.1660   -5.0830 O         1 <0>         0.0000
  17020 WAT       -35.9320  -76.1660   -4.8330 O         1 <0>         0.0000
  17021 WAT       -35.9320  -76.1660   -4.5830 O         1 <0>         0.0000
  17022 WAT       -35.9320  -76.1660   -4.3330 O         1 <0>         0.0000
  17023 WAT       -35.9320  -76.1660   -4.0830 O         1 <0>         0.0000
  17024 WAT       -35.9320  -76.1660   -3.8330 O         1 <0>         0.0000
  17025 WAT       -35.9320  -76.1660   -3.5830 O         1 <0>         0.0000
  17026 WAT       -35.9320  -76.1660   -3.3330 O         1 <0>         0.0000
  17027 WAT       -35.9320  -76.1660   -3.0830 O         1 <0>         0.0000
  17028 WAT       -35.9320  -76.1660   -2.8330 O         1 <0>         0.0000
  17029 WAT       -35.9320  -76.1660   -2.5830 O         1 <0>         0.0000
  17030 WAT       -35.9320  -76.1660   -2.3330 O         1 <0>         0.0000
  17031 WAT       -35.9320  -76.1660   -2.0830 O         1 <0>         0.0000
  17032 WAT       -35.9320  -76.1660   -1.8330 O         1 <0>         0.0000
  17033 WAT       -35.9320  -76.1660   -1.5830 O         1 <0>         0.0000
  17034 WAT       -35.9320  -76.1660   -1.3330 O         1 <0>         0.0000
  17035 WAT       -35.9320  -76.1660   -1.0830 O         1 <0>         0.0000
  17036 WAT       -35.9320  -76.1660   -0.8330 O         1 <0>         0.0000
  17037 WAT       -35.9320  -76.1660   -0.5830 O         1 <0>         0.0000
  17038 WAT       -35.9320  -76.1660   -0.3330 O         1 <0>         0.0000
  17039 WAT       -35.9320  -76.1660   -0.0830 O         1 <0>         0.0000
  17040 WAT       -35.9320  -75.9160   -9.8330 O         1 <0>         0.0000
  17041 WAT       -35.9320  -75.9160   -9.5830 O         1 <0>         0.0000
  17042 WAT       -35.9320  -75.9160   -9.3330 O         1 <0>         0.0000
  17043 WAT       -35.9320  -75.9160   -9.0830 O         1 <0>         0.0000
  17044 WAT       -35.9320  -75.9160   -8.8330 O         1 <0>         0.0000
  17045 WAT       -35.9320  -75.9160   -8.5830 O         1 <0>         0.0000
  17046 WAT       -35.9320  -75.9160   -8.3330 O         1 <0>         0.0000
  17047 WAT       -35.9320  -75.9160   -8.0830 O         1 <0>         0.0000
  17048 WAT       -35.9320  -75.9160   -7.8330 O         1 <0>         0.0000
  17049 WAT       -35.9320  -75.9160   -7.5830 O         1 <0>         0.0000
  17050 WAT       -35.9320  -75.9160   -7.3330 O         1 <0>         0.0000
  17051 WAT       -35.9320  -75.9160   -7.0830 O         1 <0>         0.0000
  17052 WAT       -35.9320  -75.9160   -6.8330 O         1 <0>         0.0000
  17053 WAT       -35.9320  -75.9160   -6.5830 O         1 <0>         0.0000
  17054 WAT       -35.9320  -75.9160   -6.3330 O         1 <0>         0.0000
  17055 WAT       -35.9320  -75.9160   -6.0830 O         1 <0>         0.0000
  17056 WAT       -35.9320  -75.9160   -5.8330 O         1 <0>         0.0000
  17057 WAT       -35.9320  -75.9160   -5.5830 O         1 <0>         0.0000
  17058 WAT       -35.9320  -75.9160   -5.3330 O         1 <0>         0.0000
  17059 WAT       -35.9320  -75.9160   -5.0830 O         1 <0>         0.0000
  17060 WAT       -35.9320  -75.9160   -4.8330 O         1 <0>         0.0000
  17061 WAT       -35.9320  -75.9160   -4.5830 O         1 <0>         0.0000
  17062 WAT       -35.9320  -75.9160   -4.3330 O         1 <0>         0.0000
  17063 WAT       -35.9320  -75.9160   -4.0830 O         1 <0>         0.0001
  17064 WAT       -35.9320  -75.9160   -3.8330 O         1 <0>         0.0001
  17065 WAT       -35.9320  -75.9160   -3.5830 O         1 <0>         0.0002
  17066 WAT       -35.9320  -75.9160   -3.3330 O         1 <0>         0.0001
  17067 WAT       -35.9320  -75.9160   -3.0830 O         1 <0>         0.0000
  17068 WAT       -35.9320  -75.9160   -2.8330 O         1 <0>         0.0000
  17069 WAT       -35.9320  -75.9160   -2.5830 O         1 <0>         0.0000
  17070 WAT       -35.9320  -75.9160   -2.3330 O         1 <0>         0.0000
  17071 WAT       -35.9320  -75.9160   -2.0830 O         1 <0>         0.0000
  17072 WAT       -35.9320  -75.9160   -1.8330 O         1 <0>         0.0000
  17073 WAT       -35.9320  -75.9160   -1.5830 O         1 <0>         0.0000
  17074 WAT       -35.9320  -75.9160   -1.3330 O         1 <0>         0.0000
  17075 WAT       -35.9320  -75.9160   -1.0830 O         1 <0>         0.0000
  17076 WAT       -35.9320  -75.9160   -0.8330 O         1 <0>         0.0000
  17077 WAT       -35.9320  -75.9160   -0.5830 O         1 <0>         0.0000
  17078 WAT       -35.9320  -75.9160   -0.3330 O         1 <0>         0.0000
  17079 WAT       -35.9320  -75.9160   -0.0830 O         1 <0>         0.0000
  17080 WAT       -35.9320  -75.6660   -9.8330 O         1 <0>         0.0000
  17081 WAT       -35.9320  -75.6660   -9.5830 O         1 <0>         0.0000
  17082 WAT       -35.9320  -75.6660   -9.3330 O         1 <0>         0.0000
  17083 WAT       -35.9320  -75.6660   -9.0830 O         1 <0>         0.0000
  17084 WAT       -35.9320  -75.6660   -8.8330 O         1 <0>         0.0000
  17085 WAT       -35.9320  -75.6660   -8.5830 O         1 <0>         0.0000
  17086 WAT       -35.9320  -75.6660   -8.3330 O         1 <0>         0.0000
  17087 WAT       -35.9320  -75.6660   -8.0830 O         1 <0>         0.0000
  17088 WAT       -35.9320  -75.6660   -7.8330 O         1 <0>         0.0000
  17089 WAT       -35.9320  -75.6660   -7.5830 O         1 <0>         0.0000
  17090 WAT       -35.9320  -75.6660   -7.3330 O         1 <0>         0.0000
  17091 WAT       -35.9320  -75.6660   -7.0830 O         1 <0>         0.0000
  17092 WAT       -35.9320  -75.6660   -6.8330 O         1 <0>         0.0000
  17093 WAT       -35.9320  -75.6660   -6.5830 O         1 <0>         0.0000
  17094 WAT       -35.9320  -75.6660   -6.3330 O         1 <0>         0.0000
  17095 WAT       -35.9320  -75.6660   -6.0830 O         1 <0>         0.0000
  17096 WAT       -35.9320  -75.6660   -5.8330 O         1 <0>         0.0000
  17097 WAT       -35.9320  -75.6660   -5.5830 O         1 <0>         0.0000
  17098 WAT       -35.9320  -75.6660   -5.3330 O         1 <0>         0.0001
  17099 WAT       -35.9320  -75.6660   -5.0830 O         1 <0>         0.0001
  17100 WAT       -35.9320  -75.6660   -4.8330 O         1 <0>         0.0001
  17101 WAT       -35.9320  -75.6660   -4.5830 O         1 <0>         0.0001
  17102 WAT       -35.9320  -75.6660   -4.3330 O         1 <0>         0.0002
  17103 WAT       -35.9320  -75.6660   -4.0830 O         1 <0>         0.0005
  17104 WAT       -35.9320  -75.6660   -3.8330 O         1 <0>         0.0008
  17105 WAT       -35.9320  -75.6660   -3.5830 O         1 <0>         0.0009
  17106 WAT       -35.9320  -75.6660   -3.3330 O         1 <0>         0.0007
  17107 WAT       -35.9320  -75.6660   -3.0830 O         1 <0>         0.0003
  17108 WAT       -35.9320  -75.6660   -2.8330 O         1 <0>         0.0001
  17109 WAT       -35.9320  -75.6660   -2.5830 O         1 <0>         0.0000
  17110 WAT       -35.9320  -75.6660   -2.3330 O         1 <0>         0.0000
  17111 WAT       -35.9320  -75.6660   -2.0830 O         1 <0>         0.0000
  17112 WAT       -35.9320  -75.6660   -1.8330 O         1 <0>         0.0000
  17113 WAT       -35.9320  -75.6660   -1.5830 O         1 <0>         0.0000
  17114 WAT       -35.9320  -75.6660   -1.3330 O         1 <0>         0.0000
  17115 WAT       -35.9320  -75.6660   -1.0830 O         1 <0>         0.0000
  17116 WAT       -35.9320  -75.6660   -0.8330 O         1 <0>         0.0000
  17117 WAT       -35.9320  -75.6660   -0.5830 O         1 <0>         0.0000
  17118 WAT       -35.9320  -75.6660   -0.3330 O         1 <0>         0.0000
  17119 WAT       -35.9320  -75.6660   -0.0830 O         1 <0>         0.0000
  17120 WAT       -35.9320  -75.4160   -9.8330 O         1 <0>         0.0000
  17121 WAT       -35.9320  -75.4160   -9.5830 O         1 <0>         0.0000
  17122 WAT       -35.9320  -75.4160   -9.3330 O         1 <0>         0.0000
  17123 WAT       -35.9320  -75.4160   -9.0830 O         1 <0>         0.0000
  17124 WAT       -35.9320  -75.4160   -8.8330 O         1 <0>         0.0000
  17125 WAT       -35.9320  -75.4160   -8.5830 O         1 <0>         0.0000
  17126 WAT       -35.9320  -75.4160   -8.3330 O         1 <0>         0.0000
  17127 WAT       -35.9320  -75.4160   -8.0830 O         1 <0>         0.0000
  17128 WAT       -35.9320  -75.4160   -7.8330 O         1 <0>         0.0000
  17129 WAT       -35.9320  -75.4160   -7.5830 O         1 <0>         0.0000
  17130 WAT       -35.9320  -75.4160   -7.3330 O         1 <0>         0.0000
  17131 WAT       -35.9320  -75.4160   -7.0830 O         1 <0>         0.0000
  17132 WAT       -35.9320  -75.4160   -6.8330 O         1 <0>         0.0000
  17133 WAT       -35.9320  -75.4160   -6.5830 O         1 <0>         0.0000
  17134 WAT       -35.9320  -75.4160   -6.3330 O         1 <0>         0.0001
  17135 WAT       -35.9320  -75.4160   -6.0830 O         1 <0>         0.0001
  17136 WAT       -35.9320  -75.4160   -5.8330 O         1 <0>         0.0002
  17137 WAT       -35.9320  -75.4160   -5.5830 O         1 <0>         0.0004
  17138 WAT       -35.9320  -75.4160   -5.3330 O         1 <0>         0.0005
  17139 WAT       -35.9320  -75.4160   -5.0830 O         1 <0>         0.0006
  17140 WAT       -35.9320  -75.4160   -4.8330 O         1 <0>         0.0006
  17141 WAT       -35.9320  -75.4160   -4.5830 O         1 <0>         0.0007
  17142 WAT       -35.9320  -75.4160   -4.3330 O         1 <0>         0.0013
  17143 WAT       -35.9320  -75.4160   -4.0830 O         1 <0>         0.0025
  17144 WAT       -35.9320  -75.4160   -3.8330 O         1 <0>         0.0039
  17145 WAT       -35.9320  -75.4160   -3.5830 O         1 <0>         0.0044
  17146 WAT       -35.9320  -75.4160   -3.3330 O         1 <0>         0.0035
  17147 WAT       -35.9320  -75.4160   -3.0830 O         1 <0>         0.0017
  17148 WAT       -35.9320  -75.4160   -2.8330 O         1 <0>         0.0005
  17149 WAT       -35.9320  -75.4160   -2.5830 O         1 <0>         0.0000
  17150 WAT       -35.9320  -75.4160   -2.3330 O         1 <0>         0.0000
  17151 WAT       -35.9320  -75.4160   -2.0830 O         1 <0>         0.0000
  17152 WAT       -35.9320  -75.4160   -1.8330 O         1 <0>         0.0000
  17153 WAT       -35.9320  -75.4160   -1.5830 O         1 <0>         0.0000
  17154 WAT       -35.9320  -75.4160   -1.3330 O         1 <0>         0.0000
  17155 WAT       -35.9320  -75.4160   -1.0830 O         1 <0>         0.0000
  17156 WAT       -35.9320  -75.4160   -0.8330 O         1 <0>         0.0000
  17157 WAT       -35.9320  -75.4160   -0.5830 O         1 <0>         0.0000
  17158 WAT       -35.9320  -75.4160   -0.3330 O         1 <0>         0.0000
  17159 WAT       -35.9320  -75.4160   -0.0830 O         1 <0>         0.0000
  17160 WAT       -35.9320  -75.1660   -9.8330 O         1 <0>         0.0000
  17161 WAT       -35.9320  -75.1660   -9.5830 O         1 <0>         0.0000
  17162 WAT       -35.9320  -75.1660   -9.3330 O         1 <0>         0.0000
  17163 WAT       -35.9320  -75.1660   -9.0830 O         1 <0>         0.0000
  17164 WAT       -35.9320  -75.1660   -8.8330 O         1 <0>         0.0000
  17165 WAT       -35.9320  -75.1660   -8.5830 O         1 <0>         0.0000
  17166 WAT       -35.9320  -75.1660   -8.3330 O         1 <0>         0.0000
  17167 WAT       -35.9320  -75.1660   -8.0830 O         1 <0>         0.0000
  17168 WAT       -35.9320  -75.1660   -7.8330 O         1 <0>         0.0000
  17169 WAT       -35.9320  -75.1660   -7.5830 O         1 <0>         0.0000
  17170 WAT       -35.9320  -75.1660   -7.3330 O         1 <0>         0.0000
  17171 WAT       -35.9320  -75.1660   -7.0830 O         1 <0>         0.0000
  17172 WAT       -35.9320  -75.1660   -6.8330 O         1 <0>         0.0001
  17173 WAT       -35.9320  -75.1660   -6.5830 O         1 <0>         0.0003
  17174 WAT       -35.9320  -75.1660   -6.3330 O         1 <0>         0.0008
  17175 WAT       -35.9320  -75.1660   -6.0830 O         1 <0>         0.0014
  17176 WAT       -35.9320  -75.1660   -5.8330 O         1 <0>         0.0020
  17177 WAT       -35.9320  -75.1660   -5.5830 O         1 <0>         0.0026
  17178 WAT       -35.9320  -75.1660   -5.3330 O         1 <0>         0.0029
  17179 WAT       -35.9320  -75.1660   -5.0830 O         1 <0>         0.0029
  17180 WAT       -35.9320  -75.1660   -4.8330 O         1 <0>         0.0028
  17181 WAT       -35.9320  -75.1660   -4.5830 O         1 <0>         0.0032
  17182 WAT       -35.9320  -75.1660   -4.3330 O         1 <0>         0.0048
  17183 WAT       -35.9320  -75.1660   -4.0830 O         1 <0>         0.0083
  17184 WAT       -35.9320  -75.1660   -3.8330 O         1 <0>         0.0126
  17185 WAT       -35.9320  -75.1660   -3.5830 O         1 <0>         0.0147
  17186 WAT       -35.9320  -75.1660   -3.3330 O         1 <0>         0.0123
  17187 WAT       -35.9320  -75.1660   -3.0830 O         1 <0>         0.0070
  17188 WAT       -35.9320  -75.1660   -2.8330 O         1 <0>         0.0024
  17189 WAT       -35.9320  -75.1660   -2.5830 O         1 <0>         0.0004
  17190 WAT       -35.9320  -75.1660   -2.3330 O         1 <0>         0.0000
  17191 WAT       -35.9320  -75.1660   -2.0830 O         1 <0>         0.0000
  17192 WAT       -35.9320  -75.1660   -1.8330 O         1 <0>         0.0000
  17193 WAT       -35.9320  -75.1660   -1.5830 O         1 <0>         0.0000
  17194 WAT       -35.9320  -75.1660   -1.3330 O         1 <0>         0.0000
  17195 WAT       -35.9320  -75.1660   -1.0830 O         1 <0>         0.0000
  17196 WAT       -35.9320  -75.1660   -0.8330 O         1 <0>         0.0000
  17197 WAT       -35.9320  -75.1660   -0.5830 O         1 <0>         0.0000
  17198 WAT       -35.9320  -75.1660   -0.3330 O         1 <0>         0.0000
  17199 WAT       -35.9320  -75.1660   -0.0830 O         1 <0>         0.0000
  17200 WAT       -35.9320  -74.9160   -9.8330 O         1 <0>         0.0000
  17201 WAT       -35.9320  -74.9160   -9.5830 O         1 <0>         0.0000
  17202 WAT       -35.9320  -74.9160   -9.3330 O         1 <0>         0.0000
  17203 WAT       -35.9320  -74.9160   -9.0830 O         1 <0>         0.0000
  17204 WAT       -35.9320  -74.9160   -8.8330 O         1 <0>         0.0000
  17205 WAT       -35.9320  -74.9160   -8.5830 O         1 <0>         0.0000
  17206 WAT       -35.9320  -74.9160   -8.3330 O         1 <0>         0.0000
  17207 WAT       -35.9320  -74.9160   -8.0830 O         1 <0>         0.0000
  17208 WAT       -35.9320  -74.9160   -7.8330 O         1 <0>         0.0000
  17209 WAT       -35.9320  -74.9160   -7.5830 O         1 <0>         0.0000
  17210 WAT       -35.9320  -74.9160   -7.3330 O         1 <0>         0.0000
  17211 WAT       -35.9320  -74.9160   -7.0830 O         1 <0>         0.0001
  17212 WAT       -35.9320  -74.9160   -6.8330 O         1 <0>         0.0005
  17213 WAT       -35.9320  -74.9160   -6.5830 O         1 <0>         0.0018
  17214 WAT       -35.9320  -74.9160   -6.3330 O         1 <0>         0.0042
  17215 WAT       -35.9320  -74.9160   -6.0830 O         1 <0>         0.0072
  17216 WAT       -35.9320  -74.9160   -5.8330 O         1 <0>         0.0095
  17217 WAT       -35.9320  -74.9160   -5.5830 O         1 <0>         0.0107
  17218 WAT       -35.9320  -74.9160   -5.3330 O         1 <0>         0.0109
  17219 WAT       -35.9320  -74.9160   -5.0830 O         1 <0>         0.0104
  17220 WAT       -35.9320  -74.9160   -4.8330 O         1 <0>         0.0097
  17221 WAT       -35.9320  -74.9160   -4.5830 O         1 <0>         0.0100
  17222 WAT       -35.9320  -74.9160   -4.3330 O         1 <0>         0.0130
  17223 WAT       -35.9320  -74.9160   -4.0830 O         1 <0>         0.0202
  17224 WAT       -35.9320  -74.9160   -3.8330 O         1 <0>         0.0302
  17225 WAT       -35.9320  -74.9160   -3.5830 O         1 <0>         0.0364
  17226 WAT       -35.9320  -74.9160   -3.3330 O         1 <0>         0.0321
  17227 WAT       -35.9320  -74.9160   -3.0830 O         1 <0>         0.0196
  17228 WAT       -35.9320  -74.9160   -2.8330 O         1 <0>         0.0079
  17229 WAT       -35.9320  -74.9160   -2.5830 O         1 <0>         0.0019
  17230 WAT       -35.9320  -74.9160   -2.3330 O         1 <0>         0.0002
  17231 WAT       -35.9320  -74.9160   -2.0830 O         1 <0>         0.0000
  17232 WAT       -35.9320  -74.9160   -1.8330 O         1 <0>         0.0000
  17233 WAT       -35.9320  -74.9160   -1.5830 O         1 <0>         0.0000
  17234 WAT       -35.9320  -74.9160   -1.3330 O         1 <0>         0.0000
  17235 WAT       -35.9320  -74.9160   -1.0830 O         1 <0>         0.0000
  17236 WAT       -35.9320  -74.9160   -0.8330 O         1 <0>         0.0000
  17237 WAT       -35.9320  -74.9160   -0.5830 O         1 <0>         0.0000
  17238 WAT       -35.9320  -74.9160   -0.3330 O         1 <0>         0.0000
  17239 WAT       -35.9320  -74.9160   -0.0830 O         1 <0>         0.0000
  17240 WAT       -35.9320  -74.6660   -9.8330 O         1 <0>         0.0000
  17241 WAT       -35.9320  -74.6660   -9.5830 O         1 <0>         0.0000
  17242 WAT       -35.9320  -74.6660   -9.3330 O         1 <0>         0.0000
  17243 WAT       -35.9320  -74.6660   -9.0830 O         1 <0>         0.0000
  17244 WAT       -35.9320  -74.6660   -8.8330 O         1 <0>         0.0000
  17245 WAT       -35.9320  -74.6660   -8.5830 O         1 <0>         0.0000
  17246 WAT       -35.9320  -74.6660   -8.3330 O         1 <0>         0.0000
  17247 WAT       -35.9320  -74.6660   -8.0830 O         1 <0>         0.0000
  17248 WAT       -35.9320  -74.6660   -7.8330 O         1 <0>         0.0000
  17249 WAT       -35.9320  -74.6660   -7.5830 O         1 <0>         0.0000
  17250 WAT       -35.9320  -74.6660   -7.3330 O         1 <0>         0.0000
  17251 WAT       -35.9320  -74.6660   -7.0830 O         1 <0>         0.0003
  17252 WAT       -35.9320  -74.6660   -6.8330 O         1 <0>         0.0020
  17253 WAT       -35.9320  -74.6660   -6.5830 O         1 <0>         0.0066
  17254 WAT       -35.9320  -74.6660   -6.3330 O         1 <0>         0.0153
  17255 WAT       -35.9320  -74.6660   -6.0830 O         1 <0>         0.0250
  17256 WAT       -35.9320  -74.6660   -5.8330 O         1 <0>         0.0312
  17257 WAT       -35.9320  -74.6660   -5.5830 O         1 <0>         0.0324
  17258 WAT       -35.9320  -74.6660   -5.3330 O         1 <0>         0.0306
  17259 WAT       -35.9320  -74.6660   -5.0830 O         1 <0>         0.0280
  17260 WAT       -35.9320  -74.6660   -4.8330 O         1 <0>         0.0253
  17261 WAT       -35.9320  -74.6660   -4.5830 O         1 <0>         0.0242
  17262 WAT       -35.9320  -74.6660   -4.3330 O         1 <0>         0.0276
  17263 WAT       -35.9320  -74.6660   -4.0830 O         1 <0>         0.0386
  17264 WAT       -35.9320  -74.6660   -3.8330 O         1 <0>         0.0560
  17265 WAT       -35.9320  -74.6660   -3.5830 O         1 <0>         0.0688
  17266 WAT       -35.9320  -74.6660   -3.3330 O         1 <0>         0.0634
  17267 WAT       -35.9320  -74.6660   -3.0830 O         1 <0>         0.0413
  17268 WAT       -35.9320  -74.6660   -2.8330 O         1 <0>         0.0183
  17269 WAT       -35.9320  -74.6660   -2.5830 O         1 <0>         0.0050
  17270 WAT       -35.9320  -74.6660   -2.3330 O         1 <0>         0.0007
  17271 WAT       -35.9320  -74.6660   -2.0830 O         1 <0>         0.0000
  17272 WAT       -35.9320  -74.6660   -1.8330 O         1 <0>         0.0000
  17273 WAT       -35.9320  -74.6660   -1.5830 O         1 <0>         0.0000
  17274 WAT       -35.9320  -74.6660   -1.3330 O         1 <0>         0.0000
  17275 WAT       -35.9320  -74.6660   -1.0830 O         1 <0>         0.0000
  17276 WAT       -35.9320  -74.6660   -0.8330 O         1 <0>         0.0000
  17277 WAT       -35.9320  -74.6660   -0.5830 O         1 <0>         0.0000
  17278 WAT       -35.9320  -74.6660   -0.3330 O         1 <0>         0.0000
  17279 WAT       -35.9320  -74.6660   -0.0830 O         1 <0>         0.0000
  17280 WAT       -35.9320  -74.4160   -9.8330 O         1 <0>         0.0000
  17281 WAT       -35.9320  -74.4160   -9.5830 O         1 <0>         0.0000
  17282 WAT       -35.9320  -74.4160   -9.3330 O         1 <0>         0.0000
  17283 WAT       -35.9320  -74.4160   -9.0830 O         1 <0>         0.0000
  17284 WAT       -35.9320  -74.4160   -8.8330 O         1 <0>         0.0000
  17285 WAT       -35.9320  -74.4160   -8.5830 O         1 <0>         0.0000
  17286 WAT       -35.9320  -74.4160   -8.3330 O         1 <0>         0.0000
  17287 WAT       -35.9320  -74.4160   -8.0830 O         1 <0>         0.0000
  17288 WAT       -35.9320  -74.4160   -7.8330 O         1 <0>         0.0000
  17289 WAT       -35.9320  -74.4160   -7.5830 O         1 <0>         0.0000
  17290 WAT       -35.9320  -74.4160   -7.3330 O         1 <0>         0.0002
  17291 WAT       -35.9320  -74.4160   -7.0830 O         1 <0>         0.0013
  17292 WAT       -35.9320  -74.4160   -6.8330 O         1 <0>         0.0057
  17293 WAT       -35.9320  -74.4160   -6.5830 O         1 <0>         0.0179
  17294 WAT       -35.9320  -74.4160   -6.3330 O         1 <0>         0.0390
  17295 WAT       -35.9320  -74.4160   -6.0830 O         1 <0>         0.0620
  17296 WAT       -35.9320  -74.4160   -5.8330 O         1 <0>         0.0749
  17297 WAT       -35.9320  -74.4160   -5.5830 O         1 <0>         0.0738
  17298 WAT       -35.9320  -74.4160   -5.3330 O         1 <0>         0.0660
  17299 WAT       -35.9320  -74.4160   -5.0830 O         1 <0>         0.0582
  17300 WAT       -35.9320  -74.4160   -4.8330 O         1 <0>         0.0516
  17301 WAT       -35.9320  -74.4160   -4.5830 O         1 <0>         0.0471
  17302 WAT       -35.9320  -74.4160   -4.3330 O         1 <0>         0.0485
  17303 WAT       -35.9320  -74.4160   -4.0830 O         1 <0>         0.0605
  17304 WAT       -35.9320  -74.4160   -3.8330 O         1 <0>         0.0828
  17305 WAT       -35.9320  -74.4160   -3.5830 O         1 <0>         0.1017
  17306 WAT       -35.9320  -74.4160   -3.3330 O         1 <0>         0.0964
  17307 WAT       -35.9320  -74.4160   -3.0830 O         1 <0>         0.0656
  17308 WAT       -35.9320  -74.4160   -2.8330 O         1 <0>         0.0309
  17309 WAT       -35.9320  -74.4160   -2.5830 O         1 <0>         0.0094
  17310 WAT       -35.9320  -74.4160   -2.3330 O         1 <0>         0.0016
  17311 WAT       -35.9320  -74.4160   -2.0830 O         1 <0>         0.0001
  17312 WAT       -35.9320  -74.4160   -1.8330 O         1 <0>         0.0000
  17313 WAT       -35.9320  -74.4160   -1.5830 O         1 <0>         0.0000
  17314 WAT       -35.9320  -74.4160   -1.3330 O         1 <0>         0.0000
  17315 WAT       -35.9320  -74.4160   -1.0830 O         1 <0>         0.0000
  17316 WAT       -35.9320  -74.4160   -0.8330 O         1 <0>         0.0000
  17317 WAT       -35.9320  -74.4160   -0.5830 O         1 <0>         0.0000
  17318 WAT       -35.9320  -74.4160   -0.3330 O         1 <0>         0.0000
  17319 WAT       -35.9320  -74.4160   -0.0830 O         1 <0>         0.0000
  17320 WAT       -35.9320  -74.1660   -9.8330 O         1 <0>         0.0000
  17321 WAT       -35.9320  -74.1660   -9.5830 O         1 <0>         0.0000
  17322 WAT       -35.9320  -74.1660   -9.3330 O         1 <0>         0.0000
  17323 WAT       -35.9320  -74.1660   -9.0830 O         1 <0>         0.0000
  17324 WAT       -35.9320  -74.1660   -8.8330 O         1 <0>         0.0000
  17325 WAT       -35.9320  -74.1660   -8.5830 O         1 <0>         0.0000
  17326 WAT       -35.9320  -74.1660   -8.3330 O         1 <0>         0.0000
  17327 WAT       -35.9320  -74.1660   -8.0830 O         1 <0>         0.0000
  17328 WAT       -35.9320  -74.1660   -7.8330 O         1 <0>         0.0000
  17329 WAT       -35.9320  -74.1660   -7.5830 O         1 <0>         0.0001
  17330 WAT       -35.9320  -74.1660   -7.3330 O         1 <0>         0.0007
  17331 WAT       -35.9320  -74.1660   -7.0830 O         1 <0>         0.0035
  17332 WAT       -35.9320  -74.1660   -6.8330 O         1 <0>         0.0131
  17333 WAT       -35.9320  -74.1660   -6.5830 O         1 <0>         0.0365
  17334 WAT       -35.9320  -74.1660   -6.3330 O         1 <0>         0.0758
  17335 WAT       -35.9320  -74.1660   -6.0830 O         1 <0>         0.1167
  17336 WAT       -35.9320  -74.1660   -5.8330 O         1 <0>         0.1365
  17337 WAT       -35.9320  -74.1660   -5.5830 O         1 <0>         0.1288
  17338 WAT       -35.9320  -74.1660   -5.3330 O         1 <0>         0.1098
  17339 WAT       -35.9320  -74.1660   -5.0830 O         1 <0>         0.0942
  17340 WAT       -35.9320  -74.1660   -4.8330 O         1 <0>         0.0830
  17341 WAT       -35.9320  -74.1660   -4.5830 O         1 <0>         0.0742
  17342 WAT       -35.9320  -74.1660   -4.3330 O         1 <0>         0.0707
  17343 WAT       -35.9320  -74.1660   -4.0830 O         1 <0>         0.0782
  17344 WAT       -35.9320  -74.1660   -3.8330 O         1 <0>         0.0983
  17345 WAT       -35.9320  -74.1660   -3.5830 O         1 <0>         0.1175
  17346 WAT       -35.9320  -74.1660   -3.3330 O         1 <0>         0.1125
  17347 WAT       -35.9320  -74.1660   -3.0830 O         1 <0>         0.0787
  17348 WAT       -35.9320  -74.1660   -2.8330 O         1 <0>         0.0385
  17349 WAT       -35.9320  -74.1660   -2.5830 O         1 <0>         0.0125
  17350 WAT       -35.9320  -74.1660   -2.3330 O         1 <0>         0.0024
  17351 WAT       -35.9320  -74.1660   -2.0830 O         1 <0>         0.0002
  17352 WAT       -35.9320  -74.1660   -1.8330 O         1 <0>         0.0000
  17353 WAT       -35.9320  -74.1660   -1.5830 O         1 <0>         0.0000
  17354 WAT       -35.9320  -74.1660   -1.3330 O         1 <0>         0.0000
  17355 WAT       -35.9320  -74.1660   -1.0830 O         1 <0>         0.0000
  17356 WAT       -35.9320  -74.1660   -0.8330 O         1 <0>         0.0000
  17357 WAT       -35.9320  -74.1660   -0.5830 O         1 <0>         0.0000
  17358 WAT       -35.9320  -74.1660   -0.3330 O         1 <0>         0.0000
  17359 WAT       -35.9320  -74.1660   -0.0830 O         1 <0>         0.0000
  17360 WAT       -35.9320  -73.9160   -9.8330 O         1 <0>         0.0000
  17361 WAT       -35.9320  -73.9160   -9.5830 O         1 <0>         0.0000
  17362 WAT       -35.9320  -73.9160   -9.3330 O         1 <0>         0.0000
  17363 WAT       -35.9320  -73.9160   -9.0830 O         1 <0>         0.0000
  17364 WAT       -35.9320  -73.9160   -8.8330 O         1 <0>         0.0000
  17365 WAT       -35.9320  -73.9160   -8.5830 O         1 <0>         0.0000
  17366 WAT       -35.9320  -73.9160   -8.3330 O         1 <0>         0.0000
  17367 WAT       -35.9320  -73.9160   -8.0830 O         1 <0>         0.0000
  17368 WAT       -35.9320  -73.9160   -7.8330 O         1 <0>         0.0000
  17369 WAT       -35.9320  -73.9160   -7.5830 O         1 <0>         0.0004
  17370 WAT       -35.9320  -73.9160   -7.3330 O         1 <0>         0.0020
  17371 WAT       -35.9320  -73.9160   -7.0830 O         1 <0>         0.0076
  17372 WAT       -35.9320  -73.9160   -6.8330 O         1 <0>         0.0232
  17373 WAT       -35.9320  -73.9160   -6.5830 O         1 <0>         0.0579
  17374 WAT       -35.9320  -73.9160   -6.3330 O         1 <0>         0.1133
  17375 WAT       -35.9320  -73.9160   -6.0830 O         1 <0>         0.1688
  17376 WAT       -35.9320  -73.9160   -5.8330 O         1 <0>         0.1910
  17377 WAT       -35.9320  -73.9160   -5.5830 O         1 <0>         0.1728
  17378 WAT       -35.9320  -73.9160   -5.3330 O         1 <0>         0.1409
  17379 WAT       -35.9320  -73.9160   -5.0830 O         1 <0>         0.1179
  17380 WAT       -35.9320  -73.9160   -4.8330 O         1 <0>         0.1044
  17381 WAT       -35.9320  -73.9160   -4.5830 O         1 <0>         0.0933
  17382 WAT       -35.9320  -73.9160   -4.3330 O         1 <0>         0.0839
  17383 WAT       -35.9320  -73.9160   -4.0830 O         1 <0>         0.0821
  17384 WAT       -35.9320  -73.9160   -3.8330 O         1 <0>         0.0919
  17385 WAT       -35.9320  -73.9160   -3.5830 O         1 <0>         0.1039
  17386 WAT       -35.9320  -73.9160   -3.3330 O         1 <0>         0.0987
  17387 WAT       -35.9320  -73.9160   -3.0830 O         1 <0>         0.0700
  17388 WAT       -35.9320  -73.9160   -2.8330 O         1 <0>         0.0350
  17389 WAT       -35.9320  -73.9160   -2.5830 O         1 <0>         0.0119
  17390 WAT       -35.9320  -73.9160   -2.3330 O         1 <0>         0.0024
  17391 WAT       -35.9320  -73.9160   -2.0830 O         1 <0>         0.0003
  17392 WAT       -35.9320  -73.9160   -1.8330 O         1 <0>         0.0000
  17393 WAT       -35.9320  -73.9160   -1.5830 O         1 <0>         0.0000
  17394 WAT       -35.9320  -73.9160   -1.3330 O         1 <0>         0.0000
  17395 WAT       -35.9320  -73.9160   -1.0830 O         1 <0>         0.0000
  17396 WAT       -35.9320  -73.9160   -0.8330 O         1 <0>         0.0000
  17397 WAT       -35.9320  -73.9160   -0.5830 O         1 <0>         0.0000
  17398 WAT       -35.9320  -73.9160   -0.3330 O         1 <0>         0.0000
  17399 WAT       -35.9320  -73.9160   -0.0830 O         1 <0>         0.0000
  17400 WAT       -35.9320  -73.6660   -9.8330 O         1 <0>         0.0000
  17401 WAT       -35.9320  -73.6660   -9.5830 O         1 <0>         0.0000
  17402 WAT       -35.9320  -73.6660   -9.3330 O         1 <0>         0.0000
  17403 WAT       -35.9320  -73.6660   -9.0830 O         1 <0>         0.0000
  17404 WAT       -35.9320  -73.6660   -8.8330 O         1 <0>         0.0000
  17405 WAT       -35.9320  -73.6660   -8.5830 O         1 <0>         0.0000
  17406 WAT       -35.9320  -73.6660   -8.3330 O         1 <0>         0.0000
  17407 WAT       -35.9320  -73.6660   -8.0830 O         1 <0>         0.0000
  17408 WAT       -35.9320  -73.6660   -7.8330 O         1 <0>         0.0002
  17409 WAT       -35.9320  -73.6660   -7.5830 O         1 <0>         0.0010
  17410 WAT       -35.9320  -73.6660   -7.3330 O         1 <0>         0.0043
  17411 WAT       -35.9320  -73.6660   -7.0830 O         1 <0>         0.0128
  17412 WAT       -35.9320  -73.6660   -6.8330 O         1 <0>         0.0325
  17413 WAT       -35.9320  -73.6660   -6.5830 O         1 <0>         0.0710
  17414 WAT       -35.9320  -73.6660   -6.3330 O         1 <0>         0.1294
  17415 WAT       -35.9320  -73.6660   -6.0830 O         1 <0>         0.1857
  17416 WAT       -35.9320  -73.6660   -5.8330 O         1 <0>         0.2036
  17417 WAT       -35.9320  -73.6660   -5.5830 O         1 <0>         0.1770
  17418 WAT       -35.9320  -73.6660   -5.3330 O         1 <0>         0.1380
  17419 WAT       -35.9320  -73.6660   -5.0830 O         1 <0>         0.1130
  17420 WAT       -35.9320  -73.6660   -4.8330 O         1 <0>         0.1011
  17421 WAT       -35.9320  -73.6660   -4.5830 O         1 <0>         0.0908
  17422 WAT       -35.9320  -73.6660   -4.3330 O         1 <0>         0.0781
  17423 WAT       -35.9320  -73.6660   -4.0830 O         1 <0>         0.0680
  17424 WAT       -35.9320  -73.6660   -3.8330 O         1 <0>         0.0661
  17425 WAT       -35.9320  -73.6660   -3.5830 O         1 <0>         0.0686
  17426 WAT       -35.9320  -73.6660   -3.3330 O         1 <0>         0.0633
  17427 WAT       -35.9320  -73.6660   -3.0830 O         1 <0>         0.0449
  17428 WAT       -35.9320  -73.6660   -2.8330 O         1 <0>         0.0227
  17429 WAT       -35.9320  -73.6660   -2.5830 O         1 <0>         0.0078
  17430 WAT       -35.9320  -73.6660   -2.3330 O         1 <0>         0.0017
  17431 WAT       -35.9320  -73.6660   -2.0830 O         1 <0>         0.0002
  17432 WAT       -35.9320  -73.6660   -1.8330 O         1 <0>         0.0000
  17433 WAT       -35.9320  -73.6660   -1.5830 O         1 <0>         0.0000
  17434 WAT       -35.9320  -73.6660   -1.3330 O         1 <0>         0.0000
  17435 WAT       -35.9320  -73.6660   -1.0830 O         1 <0>         0.0000
  17436 WAT       -35.9320  -73.6660   -0.8330 O         1 <0>         0.0000
  17437 WAT       -35.9320  -73.6660   -0.5830 O         1 <0>         0.0000
  17438 WAT       -35.9320  -73.6660   -0.3330 O         1 <0>         0.0000
  17439 WAT       -35.9320  -73.6660   -0.0830 O         1 <0>         0.0000
  17440 WAT       -35.9320  -73.4160   -9.8330 O         1 <0>         0.0000
  17441 WAT       -35.9320  -73.4160   -9.5830 O         1 <0>         0.0000
  17442 WAT       -35.9320  -73.4160   -9.3330 O         1 <0>         0.0000
  17443 WAT       -35.9320  -73.4160   -9.0830 O         1 <0>         0.0000
  17444 WAT       -35.9320  -73.4160   -8.8330 O         1 <0>         0.0000
  17445 WAT       -35.9320  -73.4160   -8.5830 O         1 <0>         0.0000
  17446 WAT       -35.9320  -73.4160   -8.3330 O         1 <0>         0.0000
  17447 WAT       -35.9320  -73.4160   -8.0830 O         1 <0>         0.0000
  17448 WAT       -35.9320  -73.4160   -7.8330 O         1 <0>         0.0003
  17449 WAT       -35.9320  -73.4160   -7.5830 O         1 <0>         0.0018
  17450 WAT       -35.9320  -73.4160   -7.3330 O         1 <0>         0.0066
  17451 WAT       -35.9320  -73.4160   -7.0830 O         1 <0>         0.0170
  17452 WAT       -35.9320  -73.4160   -6.8330 O         1 <0>         0.0363
  17453 WAT       -35.9320  -73.4160   -6.5830 O         1 <0>         0.0677
  17454 WAT       -35.9320  -73.4160   -6.3330 O         1 <0>         0.1119
  17455 WAT       -35.9320  -73.4160   -6.0830 O         1 <0>         0.1529
  17456 WAT       -35.9320  -73.4160   -5.8330 O         1 <0>         0.1625
  17457 WAT       -35.9320  -73.4160   -5.5830 O         1 <0>         0.1361
  17458 WAT       -35.9320  -73.4160   -5.3330 O         1 <0>         0.1016
  17459 WAT       -35.9320  -73.4160   -5.0830 O         1 <0>         0.0814
  17460 WAT       -35.9320  -73.4160   -4.8330 O         1 <0>         0.0738
  17461 WAT       -35.9320  -73.4160   -4.5830 O         1 <0>         0.0666
  17462 WAT       -35.9320  -73.4160   -4.3330 O         1 <0>         0.0551
  17463 WAT       -35.9320  -73.4160   -4.0830 O         1 <0>         0.0431
  17464 WAT       -35.9320  -73.4160   -3.8330 O         1 <0>         0.0359
  17465 WAT       -35.9320  -73.4160   -3.5830 O         1 <0>         0.0330
  17466 WAT       -35.9320  -73.4160   -3.3330 O         1 <0>         0.0289
  17467 WAT       -35.9320  -73.4160   -3.0830 O         1 <0>         0.0202
  17468 WAT       -35.9320  -73.4160   -2.8330 O         1 <0>         0.0101
  17469 WAT       -35.9320  -73.4160   -2.5830 O         1 <0>         0.0034
  17470 WAT       -35.9320  -73.4160   -2.3330 O         1 <0>         0.0007
  17471 WAT       -35.9320  -73.4160   -2.0830 O         1 <0>         0.0001
  17472 WAT       -35.9320  -73.4160   -1.8330 O         1 <0>         0.0000
  17473 WAT       -35.9320  -73.4160   -1.5830 O         1 <0>         0.0000
  17474 WAT       -35.9320  -73.4160   -1.3330 O         1 <0>         0.0000
  17475 WAT       -35.9320  -73.4160   -1.0830 O         1 <0>         0.0000
  17476 WAT       -35.9320  -73.4160   -0.8330 O         1 <0>         0.0000
  17477 WAT       -35.9320  -73.4160   -0.5830 O         1 <0>         0.0000
  17478 WAT       -35.9320  -73.4160   -0.3330 O         1 <0>         0.0000
  17479 WAT       -35.9320  -73.4160   -0.0830 O         1 <0>         0.0000
  17480 WAT       -35.9320  -73.1660   -9.8330 O         1 <0>         0.0000
  17481 WAT       -35.9320  -73.1660   -9.5830 O         1 <0>         0.0000
  17482 WAT       -35.9320  -73.1660   -9.3330 O         1 <0>         0.0000
  17483 WAT       -35.9320  -73.1660   -9.0830 O         1 <0>         0.0000
  17484 WAT       -35.9320  -73.1660   -8.8330 O         1 <0>         0.0000
  17485 WAT       -35.9320  -73.1660   -8.5830 O         1 <0>         0.0000
  17486 WAT       -35.9320  -73.1660   -8.3330 O         1 <0>         0.0000
  17487 WAT       -35.9320  -73.1660   -8.0830 O         1 <0>         0.0000
  17488 WAT       -35.9320  -73.1660   -7.8330 O         1 <0>         0.0004
  17489 WAT       -35.9320  -73.1660   -7.5830 O         1 <0>         0.0023
  17490 WAT       -35.9320  -73.1660   -7.3330 O         1 <0>         0.0079
  17491 WAT       -35.9320  -73.1660   -7.0830 O         1 <0>         0.0182
  17492 WAT       -35.9320  -73.1660   -6.8330 O         1 <0>         0.0331
  17493 WAT       -35.9320  -73.1660   -6.5830 O         1 <0>         0.0518
  17494 WAT       -35.9320  -73.1660   -6.3330 O         1 <0>         0.0745
  17495 WAT       -35.9320  -73.1660   -6.0830 O         1 <0>         0.0941
  17496 WAT       -35.9320  -73.1660   -5.8330 O         1 <0>         0.0958
  17497 WAT       -35.9320  -73.1660   -5.5830 O         1 <0>         0.0772
  17498 WAT       -35.9320  -73.1660   -5.3330 O         1 <0>         0.0550
  17499 WAT       -35.9320  -73.1660   -5.0830 O         1 <0>         0.0430
  17500 WAT       -35.9320  -73.1660   -4.8330 O         1 <0>         0.0395
  17501 WAT       -35.9320  -73.1660   -4.5830 O         1 <0>         0.0358
  17502 WAT       -35.9320  -73.1660   -4.3330 O         1 <0>         0.0285
  17503 WAT       -35.9320  -73.1660   -4.0830 O         1 <0>         0.0202
  17504 WAT       -35.9320  -73.1660   -3.8330 O         1 <0>         0.0141
  17505 WAT       -35.9320  -73.1660   -3.5830 O         1 <0>         0.0111
  17506 WAT       -35.9320  -73.1660   -3.3330 O         1 <0>         0.0090
  17507 WAT       -35.9320  -73.1660   -3.0830 O         1 <0>         0.0061
  17508 WAT       -35.9320  -73.1660   -2.8330 O         1 <0>         0.0029
  17509 WAT       -35.9320  -73.1660   -2.5830 O         1 <0>         0.0009
  17510 WAT       -35.9320  -73.1660   -2.3330 O         1 <0>         0.0002
  17511 WAT       -35.9320  -73.1660   -2.0830 O         1 <0>         0.0000
  17512 WAT       -35.9320  -73.1660   -1.8330 O         1 <0>         0.0000
  17513 WAT       -35.9320  -73.1660   -1.5830 O         1 <0>         0.0000
  17514 WAT       -35.9320  -73.1660   -1.3330 O         1 <0>         0.0000
  17515 WAT       -35.9320  -73.1660   -1.0830 O         1 <0>         0.0000
  17516 WAT       -35.9320  -73.1660   -0.8330 O         1 <0>         0.0000
  17517 WAT       -35.9320  -73.1660   -0.5830 O         1 <0>         0.0000
  17518 WAT       -35.9320  -73.1660   -0.3330 O         1 <0>         0.0000
  17519 WAT       -35.9320  -73.1660   -0.0830 O         1 <0>         0.0000
  17520 WAT       -35.9320  -72.9160   -9.8330 O         1 <0>         0.0000
  17521 WAT       -35.9320  -72.9160   -9.5830 O         1 <0>         0.0000
  17522 WAT       -35.9320  -72.9160   -9.3330 O         1 <0>         0.0000
  17523 WAT       -35.9320  -72.9160   -9.0830 O         1 <0>         0.0000
  17524 WAT       -35.9320  -72.9160   -8.8330 O         1 <0>         0.0000
  17525 WAT       -35.9320  -72.9160   -8.5830 O         1 <0>         0.0000
  17526 WAT       -35.9320  -72.9160   -8.3330 O         1 <0>         0.0000
  17527 WAT       -35.9320  -72.9160   -8.0830 O         1 <0>         0.0000
  17528 WAT       -35.9320  -72.9160   -7.8330 O         1 <0>         0.0004
  17529 WAT       -35.9320  -72.9160   -7.5830 O         1 <0>         0.0024
  17530 WAT       -35.9320  -72.9160   -7.3330 O         1 <0>         0.0079
  17531 WAT       -35.9320  -72.9160   -7.0830 O         1 <0>         0.0165
  17532 WAT       -35.9320  -72.9160   -6.8330 O         1 <0>         0.0258
  17533 WAT       -35.9320  -72.9160   -6.5830 O         1 <0>         0.0336
  17534 WAT       -35.9320  -72.9160   -6.3330 O         1 <0>         0.0399
  17535 WAT       -35.9320  -72.9160   -6.0830 O         1 <0>         0.0441
  17536 WAT       -35.9320  -72.9160   -5.8330 O         1 <0>         0.0416
  17537 WAT       -35.9320  -72.9160   -5.5830 O         1 <0>         0.0316
  17538 WAT       -35.9320  -72.9160   -5.3330 O         1 <0>         0.0211
  17539 WAT       -35.9320  -72.9160   -5.0830 O         1 <0>         0.0159
  17540 WAT       -35.9320  -72.9160   -4.8330 O         1 <0>         0.0148
  17541 WAT       -35.9320  -72.9160   -4.5830 O         1 <0>         0.0136
  17542 WAT       -35.9320  -72.9160   -4.3330 O         1 <0>         0.0104
  17543 WAT       -35.9320  -72.9160   -4.0830 O         1 <0>         0.0065
  17544 WAT       -35.9320  -72.9160   -3.8330 O         1 <0>         0.0038
  17545 WAT       -35.9320  -72.9160   -3.5830 O         1 <0>         0.0024
  17546 WAT       -35.9320  -72.9160   -3.3330 O         1 <0>         0.0017
  17547 WAT       -35.9320  -72.9160   -3.0830 O         1 <0>         0.0011
  17548 WAT       -35.9320  -72.9160   -2.8330 O         1 <0>         0.0005
  17549 WAT       -35.9320  -72.9160   -2.5830 O         1 <0>         0.0001
  17550 WAT       -35.9320  -72.9160   -2.3330 O         1 <0>         0.0000
  17551 WAT       -35.9320  -72.9160   -2.0830 O         1 <0>         0.0000
  17552 WAT       -35.9320  -72.9160   -1.8330 O         1 <0>         0.0000
  17553 WAT       -35.9320  -72.9160   -1.5830 O         1 <0>         0.0000
  17554 WAT       -35.9320  -72.9160   -1.3330 O         1 <0>         0.0000
  17555 WAT       -35.9320  -72.9160   -1.0830 O         1 <0>         0.0000
  17556 WAT       -35.9320  -72.9160   -0.8330 O         1 <0>         0.0000
  17557 WAT       -35.9320  -72.9160   -0.5830 O         1 <0>         0.0000
  17558 WAT       -35.9320  -72.9160   -0.3330 O         1 <0>         0.0000
  17559 WAT       -35.9320  -72.9160   -0.0830 O         1 <0>         0.0000
  17560 WAT       -35.9320  -72.6660   -9.8330 O         1 <0>         0.0000
  17561 WAT       -35.9320  -72.6660   -9.5830 O         1 <0>         0.0000
  17562 WAT       -35.9320  -72.6660   -9.3330 O         1 <0>         0.0000
  17563 WAT       -35.9320  -72.6660   -9.0830 O         1 <0>         0.0000
  17564 WAT       -35.9320  -72.6660   -8.8330 O         1 <0>         0.0000
  17565 WAT       -35.9320  -72.6660   -8.5830 O         1 <0>         0.0000
  17566 WAT       -35.9320  -72.6660   -8.3330 O         1 <0>         0.0000
  17567 WAT       -35.9320  -72.6660   -8.0830 O         1 <0>         0.0000
  17568 WAT       -35.9320  -72.6660   -7.8330 O         1 <0>         0.0004
  17569 WAT       -35.9320  -72.6660   -7.5830 O         1 <0>         0.0023
  17570 WAT       -35.9320  -72.6660   -7.3330 O         1 <0>         0.0073
  17571 WAT       -35.9320  -72.6660   -7.0830 O         1 <0>         0.0138
  17572 WAT       -35.9320  -72.6660   -6.8330 O         1 <0>         0.0185
  17573 WAT       -35.9320  -72.6660   -6.5830 O         1 <0>         0.0197
  17574 WAT       -35.9320  -72.6660   -6.3330 O         1 <0>         0.0186
  17575 WAT       -35.9320  -72.6660   -6.0830 O         1 <0>         0.0166
  17576 WAT       -35.9320  -72.6660   -5.8330 O         1 <0>         0.0134
  17577 WAT       -35.9320  -72.6660   -5.5830 O         1 <0>         0.0092
  17578 WAT       -35.9320  -72.6660   -5.3330 O         1 <0>         0.0055
  17579 WAT       -35.9320  -72.6660   -5.0830 O         1 <0>         0.0038
  17580 WAT       -35.9320  -72.6660   -4.8330 O         1 <0>         0.0036
  17581 WAT       -35.9320  -72.6660   -4.5830 O         1 <0>         0.0033
  17582 WAT       -35.9320  -72.6660   -4.3330 O         1 <0>         0.0024
  17583 WAT       -35.9320  -72.6660   -4.0830 O         1 <0>         0.0013
  17584 WAT       -35.9320  -72.6660   -3.8330 O         1 <0>         0.0006
  17585 WAT       -35.9320  -72.6660   -3.5830 O         1 <0>         0.0003
  17586 WAT       -35.9320  -72.6660   -3.3330 O         1 <0>         0.0002
  17587 WAT       -35.9320  -72.6660   -3.0830 O         1 <0>         0.0001
  17588 WAT       -35.9320  -72.6660   -2.8330 O         1 <0>         0.0000
  17589 WAT       -35.9320  -72.6660   -2.5830 O         1 <0>         0.0000
  17590 WAT       -35.9320  -72.6660   -2.3330 O         1 <0>         0.0000
  17591 WAT       -35.9320  -72.6660   -2.0830 O         1 <0>         0.0000
  17592 WAT       -35.9320  -72.6660   -1.8330 O         1 <0>         0.0000
  17593 WAT       -35.9320  -72.6660   -1.5830 O         1 <0>         0.0000
  17594 WAT       -35.9320  -72.6660   -1.3330 O         1 <0>         0.0000
  17595 WAT       -35.9320  -72.6660   -1.0830 O         1 <0>         0.0000
  17596 WAT       -35.9320  -72.6660   -0.8330 O         1 <0>         0.0000
  17597 WAT       -35.9320  -72.6660   -0.5830 O         1 <0>         0.0000
  17598 WAT       -35.9320  -72.6660   -0.3330 O         1 <0>         0.0000
  17599 WAT       -35.9320  -72.6660   -0.0830 O         1 <0>         0.0000
  17600 WAT       -35.9320  -72.4160   -9.8330 O         1 <0>         0.0000
  17601 WAT       -35.9320  -72.4160   -9.5830 O         1 <0>         0.0000
  17602 WAT       -35.9320  -72.4160   -9.3330 O         1 <0>         0.0000
  17603 WAT       -35.9320  -72.4160   -9.0830 O         1 <0>         0.0000
  17604 WAT       -35.9320  -72.4160   -8.8330 O         1 <0>         0.0000
  17605 WAT       -35.9320  -72.4160   -8.5830 O         1 <0>         0.0000
  17606 WAT       -35.9320  -72.4160   -8.3330 O         1 <0>         0.0000
  17607 WAT       -35.9320  -72.4160   -8.0830 O         1 <0>         0.0000
  17608 WAT       -35.9320  -72.4160   -7.8330 O         1 <0>         0.0003
  17609 WAT       -35.9320  -72.4160   -7.5830 O         1 <0>         0.0023
  17610 WAT       -35.9320  -72.4160   -7.3330 O         1 <0>         0.0068
  17611 WAT       -35.9320  -72.4160   -7.0830 O         1 <0>         0.0112
  17612 WAT       -35.9320  -72.4160   -6.8330 O         1 <0>         0.0127
  17613 WAT       -35.9320  -72.4160   -6.5830 O         1 <0>         0.0111
  17614 WAT       -35.9320  -72.4160   -6.3330 O         1 <0>         0.0082
  17615 WAT       -35.9320  -72.4160   -6.0830 O         1 <0>         0.0055
  17616 WAT       -35.9320  -72.4160   -5.8330 O         1 <0>         0.0034
  17617 WAT       -35.9320  -72.4160   -5.5830 O         1 <0>         0.0019
  17618 WAT       -35.9320  -72.4160   -5.3330 O         1 <0>         0.0009
  17619 WAT       -35.9320  -72.4160   -5.0830 O         1 <0>         0.0005
  17620 WAT       -35.9320  -72.4160   -4.8330 O         1 <0>         0.0005
  17621 WAT       -35.9320  -72.4160   -4.5830 O         1 <0>         0.0004
  17622 WAT       -35.9320  -72.4160   -4.3330 O         1 <0>         0.0002
  17623 WAT       -35.9320  -72.4160   -4.0830 O         1 <0>         0.0001
  17624 WAT       -35.9320  -72.4160   -3.8330 O         1 <0>         0.0000
  17625 WAT       -35.9320  -72.4160   -3.5830 O         1 <0>         0.0000
  17626 WAT       -35.9320  -72.4160   -3.3330 O         1 <0>         0.0000
  17627 WAT       -35.9320  -72.4160   -3.0830 O         1 <0>         0.0000
  17628 WAT       -35.9320  -72.4160   -2.8330 O         1 <0>         0.0000
  17629 WAT       -35.9320  -72.4160   -2.5830 O         1 <0>         0.0000
  17630 WAT       -35.9320  -72.4160   -2.3330 O         1 <0>         0.0000
  17631 WAT       -35.9320  -72.4160   -2.0830 O         1 <0>         0.0000
  17632 WAT       -35.9320  -72.4160   -1.8330 O         1 <0>         0.0000
  17633 WAT       -35.9320  -72.4160   -1.5830 O         1 <0>         0.0000
  17634 WAT       -35.9320  -72.4160   -1.3330 O         1 <0>         0.0000
  17635 WAT       -35.9320  -72.4160   -1.0830 O         1 <0>         0.0000
  17636 WAT       -35.9320  -72.4160   -0.8330 O         1 <0>         0.0000
  17637 WAT       -35.9320  -72.4160   -0.5830 O         1 <0>         0.0000
  17638 WAT       -35.9320  -72.4160   -0.3330 O         1 <0>         0.0000
  17639 WAT       -35.9320  -72.4160   -0.0830 O         1 <0>         0.0000
  17640 WAT       -35.9320  -72.1660   -9.8330 O         1 <0>         0.0000
  17641 WAT       -35.9320  -72.1660   -9.5830 O         1 <0>         0.0000
  17642 WAT       -35.9320  -72.1660   -9.3330 O         1 <0>         0.0000
  17643 WAT       -35.9320  -72.1660   -9.0830 O         1 <0>         0.0000
  17644 WAT       -35.9320  -72.1660   -8.8330 O         1 <0>         0.0000
  17645 WAT       -35.9320  -72.1660   -8.5830 O         1 <0>         0.0000
  17646 WAT       -35.9320  -72.1660   -8.3330 O         1 <0>         0.0000
  17647 WAT       -35.9320  -72.1660   -8.0830 O         1 <0>         0.0000
  17648 WAT       -35.9320  -72.1660   -7.8330 O         1 <0>         0.0004
  17649 WAT       -35.9320  -72.1660   -7.5830 O         1 <0>         0.0026
  17650 WAT       -35.9320  -72.1660   -7.3330 O         1 <0>         0.0064
  17651 WAT       -35.9320  -72.1660   -7.0830 O         1 <0>         0.0090
  17652 WAT       -35.9320  -72.1660   -6.8330 O         1 <0>         0.0083
  17653 WAT       -35.9320  -72.1660   -6.5830 O         1 <0>         0.0058
  17654 WAT       -35.9320  -72.1660   -6.3330 O         1 <0>         0.0034
  17655 WAT       -35.9320  -72.1660   -6.0830 O         1 <0>         0.0017
  17656 WAT       -35.9320  -72.1660   -5.8330 O         1 <0>         0.0008
  17657 WAT       -35.9320  -72.1660   -5.5830 O         1 <0>         0.0003
  17658 WAT       -35.9320  -72.1660   -5.3330 O         1 <0>         0.0001
  17659 WAT       -35.9320  -72.1660   -5.0830 O         1 <0>         0.0000
  17660 WAT       -35.9320  -72.1660   -4.8330 O         1 <0>         0.0000
  17661 WAT       -35.9320  -72.1660   -4.5830 O         1 <0>         0.0000
  17662 WAT       -35.9320  -72.1660   -4.3330 O         1 <0>         0.0000
  17663 WAT       -35.9320  -72.1660   -4.0830 O         1 <0>         0.0000
  17664 WAT       -35.9320  -72.1660   -3.8330 O         1 <0>         0.0000
  17665 WAT       -35.9320  -72.1660   -3.5830 O         1 <0>         0.0000
  17666 WAT       -35.9320  -72.1660   -3.3330 O         1 <0>         0.0000
  17667 WAT       -35.9320  -72.1660   -3.0830 O         1 <0>         0.0000
  17668 WAT       -35.9320  -72.1660   -2.8330 O         1 <0>         0.0000
  17669 WAT       -35.9320  -72.1660   -2.5830 O         1 <0>         0.0000
  17670 WAT       -35.9320  -72.1660   -2.3330 O         1 <0>         0.0000
  17671 WAT       -35.9320  -72.1660   -2.0830 O         1 <0>         0.0000
  17672 WAT       -35.9320  -72.1660   -1.8330 O         1 <0>         0.0000
  17673 WAT       -35.9320  -72.1660   -1.5830 O         1 <0>         0.0000
  17674 WAT       -35.9320  -72.1660   -1.3330 O         1 <0>         0.0000
  17675 WAT       -35.9320  -72.1660   -1.0830 O         1 <0>         0.0000
  17676 WAT       -35.9320  -72.1660   -0.8330 O         1 <0>         0.0000
  17677 WAT       -35.9320  -72.1660   -0.5830 O         1 <0>         0.0000
  17678 WAT       -35.9320  -72.1660   -0.3330 O         1 <0>         0.0000
  17679 WAT       -35.9320  -72.1660   -0.0830 O         1 <0>         0.0000
  17680 WAT       -35.9320  -71.9160   -9.8330 O         1 <0>         0.0000
  17681 WAT       -35.9320  -71.9160   -9.5830 O         1 <0>         0.0000
  17682 WAT       -35.9320  -71.9160   -9.3330 O         1 <0>         0.0000
  17683 WAT       -35.9320  -71.9160   -9.0830 O         1 <0>         0.0000
  17684 WAT       -35.9320  -71.9160   -8.8330 O         1 <0>         0.0000
  17685 WAT       -35.9320  -71.9160   -8.5830 O         1 <0>         0.0000
  17686 WAT       -35.9320  -71.9160   -8.3330 O         1 <0>         0.0000
  17687 WAT       -35.9320  -71.9160   -8.0830 O         1 <0>         0.0001
  17688 WAT       -35.9320  -71.9160   -7.8330 O         1 <0>         0.0006
  17689 WAT       -35.9320  -71.9160   -7.5830 O         1 <0>         0.0028
  17690 WAT       -35.9320  -71.9160   -7.3330 O         1 <0>         0.0060
  17691 WAT       -35.9320  -71.9160   -7.0830 O         1 <0>         0.0070
  17692 WAT       -35.9320  -71.9160   -6.8330 O         1 <0>         0.0053
  17693 WAT       -35.9320  -71.9160   -6.5830 O         1 <0>         0.0029
  17694 WAT       -35.9320  -71.9160   -6.3330 O         1 <0>         0.0013
  17695 WAT       -35.9320  -71.9160   -6.0830 O         1 <0>         0.0005
  17696 WAT       -35.9320  -71.9160   -5.8330 O         1 <0>         0.0002
  17697 WAT       -35.9320  -71.9160   -5.5830 O         1 <0>         0.0000
  17698 WAT       -35.9320  -71.9160   -5.3330 O         1 <0>         0.0000
  17699 WAT       -35.9320  -71.9160   -5.0830 O         1 <0>         0.0000
  17700 WAT       -35.9320  -71.9160   -4.8330 O         1 <0>         0.0000
  17701 WAT       -35.9320  -71.9160   -4.5830 O         1 <0>         0.0000
  17702 WAT       -35.9320  -71.9160   -4.3330 O         1 <0>         0.0000
  17703 WAT       -35.9320  -71.9160   -4.0830 O         1 <0>         0.0000
  17704 WAT       -35.9320  -71.9160   -3.8330 O         1 <0>         0.0000
  17705 WAT       -35.9320  -71.9160   -3.5830 O         1 <0>         0.0000
  17706 WAT       -35.9320  -71.9160   -3.3330 O         1 <0>         0.0000
  17707 WAT       -35.9320  -71.9160   -3.0830 O         1 <0>         0.0000
  17708 WAT       -35.9320  -71.9160   -2.8330 O         1 <0>         0.0000
  17709 WAT       -35.9320  -71.9160   -2.5830 O         1 <0>         0.0000
  17710 WAT       -35.9320  -71.9160   -2.3330 O         1 <0>         0.0000
  17711 WAT       -35.9320  -71.9160   -2.0830 O         1 <0>         0.0000
  17712 WAT       -35.9320  -71.9160   -1.8330 O         1 <0>         0.0000
  17713 WAT       -35.9320  -71.9160   -1.5830 O         1 <0>         0.0000
  17714 WAT       -35.9320  -71.9160   -1.3330 O         1 <0>         0.0000
  17715 WAT       -35.9320  -71.9160   -1.0830 O         1 <0>         0.0000
  17716 WAT       -35.9320  -71.9160   -0.8330 O         1 <0>         0.0000
  17717 WAT       -35.9320  -71.9160   -0.5830 O         1 <0>         0.0000
  17718 WAT       -35.9320  -71.9160   -0.3330 O         1 <0>         0.0000
  17719 WAT       -35.9320  -71.9160   -0.0830 O         1 <0>         0.0000
  17720 WAT       -35.9320  -71.6660   -9.8330 O         1 <0>         0.0000
  17721 WAT       -35.9320  -71.6660   -9.5830 O         1 <0>         0.0000
  17722 WAT       -35.9320  -71.6660   -9.3330 O         1 <0>         0.0000
  17723 WAT       -35.9320  -71.6660   -9.0830 O         1 <0>         0.0000
  17724 WAT       -35.9320  -71.6660   -8.8330 O         1 <0>         0.0000
  17725 WAT       -35.9320  -71.6660   -8.5830 O         1 <0>         0.0000
  17726 WAT       -35.9320  -71.6660   -8.3330 O         1 <0>         0.0000
  17727 WAT       -35.9320  -71.6660   -8.0830 O         1 <0>         0.0001
  17728 WAT       -35.9320  -71.6660   -7.8330 O         1 <0>         0.0008
  17729 WAT       -35.9320  -71.6660   -7.5830 O         1 <0>         0.0029
  17730 WAT       -35.9320  -71.6660   -7.3330 O         1 <0>         0.0052
  17731 WAT       -35.9320  -71.6660   -7.0830 O         1 <0>         0.0052
  17732 WAT       -35.9320  -71.6660   -6.8330 O         1 <0>         0.0032
  17733 WAT       -35.9320  -71.6660   -6.5830 O         1 <0>         0.0014
  17734 WAT       -35.9320  -71.6660   -6.3330 O         1 <0>         0.0005
  17735 WAT       -35.9320  -71.6660   -6.0830 O         1 <0>         0.0001
  17736 WAT       -35.9320  -71.6660   -5.8330 O         1 <0>         0.0000
  17737 WAT       -35.9320  -71.6660   -5.5830 O         1 <0>         0.0000
  17738 WAT       -35.9320  -71.6660   -5.3330 O         1 <0>         0.0000
  17739 WAT       -35.9320  -71.6660   -5.0830 O         1 <0>         0.0000
  17740 WAT       -35.9320  -71.6660   -4.8330 O         1 <0>         0.0000
  17741 WAT       -35.9320  -71.6660   -4.5830 O         1 <0>         0.0000
  17742 WAT       -35.9320  -71.6660   -4.3330 O         1 <0>         0.0000
  17743 WAT       -35.9320  -71.6660   -4.0830 O         1 <0>         0.0000
  17744 WAT       -35.9320  -71.6660   -3.8330 O         1 <0>         0.0000
  17745 WAT       -35.9320  -71.6660   -3.5830 O         1 <0>         0.0000
  17746 WAT       -35.9320  -71.6660   -3.3330 O         1 <0>         0.0000
  17747 WAT       -35.9320  -71.6660   -3.0830 O         1 <0>         0.0000
  17748 WAT       -35.9320  -71.6660   -2.8330 O         1 <0>         0.0000
  17749 WAT       -35.9320  -71.6660   -2.5830 O         1 <0>         0.0000
  17750 WAT       -35.9320  -71.6660   -2.3330 O         1 <0>         0.0000
  17751 WAT       -35.9320  -71.6660   -2.0830 O         1 <0>         0.0000
  17752 WAT       -35.9320  -71.6660   -1.8330 O         1 <0>         0.0000
  17753 WAT       -35.9320  -71.6660   -1.5830 O         1 <0>         0.0000
  17754 WAT       -35.9320  -71.6660   -1.3330 O         1 <0>         0.0000
  17755 WAT       -35.9320  -71.6660   -1.0830 O         1 <0>         0.0000
  17756 WAT       -35.9320  -71.6660   -0.8330 O         1 <0>         0.0000
  17757 WAT       -35.9320  -71.6660   -0.5830 O         1 <0>         0.0000
  17758 WAT       -35.9320  -71.6660   -0.3330 O         1 <0>         0.0000
  17759 WAT       -35.9320  -71.6660   -0.0830 O         1 <0>         0.0000
  17760 WAT       -35.9320  -71.4160   -9.8330 O         1 <0>         0.0000
  17761 WAT       -35.9320  -71.4160   -9.5830 O         1 <0>         0.0000
  17762 WAT       -35.9320  -71.4160   -9.3330 O         1 <0>         0.0000
  17763 WAT       -35.9320  -71.4160   -9.0830 O         1 <0>         0.0000
  17764 WAT       -35.9320  -71.4160   -8.8330 O         1 <0>         0.0000
  17765 WAT       -35.9320  -71.4160   -8.5830 O         1 <0>         0.0000
  17766 WAT       -35.9320  -71.4160   -8.3330 O         1 <0>         0.0000
  17767 WAT       -35.9320  -71.4160   -8.0830 O         1 <0>         0.0001
  17768 WAT       -35.9320  -71.4160   -7.8330 O         1 <0>         0.0008
  17769 WAT       -35.9320  -71.4160   -7.5830 O         1 <0>         0.0024
  17770 WAT       -35.9320  -71.4160   -7.3330 O         1 <0>         0.0038
  17771 WAT       -35.9320  -71.4160   -7.0830 O         1 <0>         0.0034
  17772 WAT       -35.9320  -71.4160   -6.8330 O         1 <0>         0.0019
  17773 WAT       -35.9320  -71.4160   -6.5830 O         1 <0>         0.0006
  17774 WAT       -35.9320  -71.4160   -6.3330 O         1 <0>         0.0002
  17775 WAT       -35.9320  -71.4160   -6.0830 O         1 <0>         0.0000
  17776 WAT       -35.9320  -71.4160   -5.8330 O         1 <0>         0.0000
  17777 WAT       -35.9320  -71.4160   -5.5830 O         1 <0>         0.0000
  17778 WAT       -35.9320  -71.4160   -5.3330 O         1 <0>         0.0000
  17779 WAT       -35.9320  -71.4160   -5.0830 O         1 <0>         0.0000
  17780 WAT       -35.9320  -71.4160   -4.8330 O         1 <0>         0.0000
  17781 WAT       -35.9320  -71.4160   -4.5830 O         1 <0>         0.0000
  17782 WAT       -35.9320  -71.4160   -4.3330 O         1 <0>         0.0000
  17783 WAT       -35.9320  -71.4160   -4.0830 O         1 <0>         0.0000
  17784 WAT       -35.9320  -71.4160   -3.8330 O         1 <0>         0.0000
  17785 WAT       -35.9320  -71.4160   -3.5830 O         1 <0>         0.0000
  17786 WAT       -35.9320  -71.4160   -3.3330 O         1 <0>         0.0000
  17787 WAT       -35.9320  -71.4160   -3.0830 O         1 <0>         0.0000
  17788 WAT       -35.9320  -71.4160   -2.8330 O         1 <0>         0.0000
  17789 WAT       -35.9320  -71.4160   -2.5830 O         1 <0>         0.0000
  17790 WAT       -35.9320  -71.4160   -2.3330 O         1 <0>         0.0000
  17791 WAT       -35.9320  -71.4160   -2.0830 O         1 <0>         0.0000
  17792 WAT       -35.9320  -71.4160   -1.8330 O         1 <0>         0.0000
  17793 WAT       -35.9320  -71.4160   -1.5830 O         1 <0>         0.0000
  17794 WAT       -35.9320  -71.4160   -1.3330 O         1 <0>         0.0000
  17795 WAT       -35.9320  -71.4160   -1.0830 O         1 <0>         0.0000
  17796 WAT       -35.9320  -71.4160   -0.8330 O         1 <0>         0.0000
  17797 WAT       -35.9320  -71.4160   -0.5830 O         1 <0>         0.0000
  17798 WAT       -35.9320  -71.4160   -0.3330 O         1 <0>         0.0000
  17799 WAT       -35.9320  -71.4160   -0.0830 O         1 <0>         0.0000
  17800 WAT       -35.9320  -71.1660   -9.8330 O         1 <0>         0.0000
  17801 WAT       -35.9320  -71.1660   -9.5830 O         1 <0>         0.0000
  17802 WAT       -35.9320  -71.1660   -9.3330 O         1 <0>         0.0000
  17803 WAT       -35.9320  -71.1660   -9.0830 O         1 <0>         0.0000
  17804 WAT       -35.9320  -71.1660   -8.8330 O         1 <0>         0.0000
  17805 WAT       -35.9320  -71.1660   -8.5830 O         1 <0>         0.0000
  17806 WAT       -35.9320  -71.1660   -8.3330 O         1 <0>         0.0000
  17807 WAT       -35.9320  -71.1660   -8.0830 O         1 <0>         0.0001
  17808 WAT       -35.9320  -71.1660   -7.8330 O         1 <0>         0.0005
  17809 WAT       -35.9320  -71.1660   -7.5830 O         1 <0>         0.0015
  17810 WAT       -35.9320  -71.1660   -7.3330 O         1 <0>         0.0022
  17811 WAT       -35.9320  -71.1660   -7.0830 O         1 <0>         0.0019
  17812 WAT       -35.9320  -71.1660   -6.8330 O         1 <0>         0.0009
  17813 WAT       -35.9320  -71.1660   -6.5830 O         1 <0>         0.0003
  17814 WAT       -35.9320  -71.1660   -6.3330 O         1 <0>         0.0001
  17815 WAT       -35.9320  -71.1660   -6.0830 O         1 <0>         0.0000
  17816 WAT       -35.9320  -71.1660   -5.8330 O         1 <0>         0.0000
  17817 WAT       -35.9320  -71.1660   -5.5830 O         1 <0>         0.0000
  17818 WAT       -35.9320  -71.1660   -5.3330 O         1 <0>         0.0000
  17819 WAT       -35.9320  -71.1660   -5.0830 O         1 <0>         0.0000
  17820 WAT       -35.9320  -71.1660   -4.8330 O         1 <0>         0.0000
  17821 WAT       -35.9320  -71.1660   -4.5830 O         1 <0>         0.0000
  17822 WAT       -35.9320  -71.1660   -4.3330 O         1 <0>         0.0000
  17823 WAT       -35.9320  -71.1660   -4.0830 O         1 <0>         0.0000
  17824 WAT       -35.9320  -71.1660   -3.8330 O         1 <0>         0.0000
  17825 WAT       -35.9320  -71.1660   -3.5830 O         1 <0>         0.0000
  17826 WAT       -35.9320  -71.1660   -3.3330 O         1 <0>         0.0000
  17827 WAT       -35.9320  -71.1660   -3.0830 O         1 <0>         0.0000
  17828 WAT       -35.9320  -71.1660   -2.8330 O         1 <0>         0.0000
  17829 WAT       -35.9320  -71.1660   -2.5830 O         1 <0>         0.0000
  17830 WAT       -35.9320  -71.1660   -2.3330 O         1 <0>         0.0000
  17831 WAT       -35.9320  -71.1660   -2.0830 O         1 <0>         0.0000
  17832 WAT       -35.9320  -71.1660   -1.8330 O         1 <0>         0.0000
  17833 WAT       -35.9320  -71.1660   -1.5830 O         1 <0>         0.0000
  17834 WAT       -35.9320  -71.1660   -1.3330 O         1 <0>         0.0000
  17835 WAT       -35.9320  -71.1660   -1.0830 O         1 <0>         0.0000
  17836 WAT       -35.9320  -71.1660   -0.8330 O         1 <0>         0.0000
  17837 WAT       -35.9320  -71.1660   -0.5830 O         1 <0>         0.0000
  17838 WAT       -35.9320  -71.1660   -0.3330 O         1 <0>         0.0000
  17839 WAT       -35.9320  -71.1660   -0.0830 O         1 <0>         0.0000
  17840 WAT       -35.9320  -70.9160   -9.8330 O         1 <0>         0.0000
  17841 WAT       -35.9320  -70.9160   -9.5830 O         1 <0>         0.0000
  17842 WAT       -35.9320  -70.9160   -9.3330 O         1 <0>         0.0000
  17843 WAT       -35.9320  -70.9160   -9.0830 O         1 <0>         0.0000
  17844 WAT       -35.9320  -70.9160   -8.8330 O         1 <0>         0.0000
  17845 WAT       -35.9320  -70.9160   -8.5830 O         1 <0>         0.0000
  17846 WAT       -35.9320  -70.9160   -8.3330 O         1 <0>         0.0000
  17847 WAT       -35.9320  -70.9160   -8.0830 O         1 <0>         0.0000
  17848 WAT       -35.9320  -70.9160   -7.8330 O         1 <0>         0.0002
  17849 WAT       -35.9320  -70.9160   -7.5830 O         1 <0>         0.0007
  17850 WAT       -35.9320  -70.9160   -7.3330 O         1 <0>         0.0010
  17851 WAT       -35.9320  -70.9160   -7.0830 O         1 <0>         0.0008
  17852 WAT       -35.9320  -70.9160   -6.8330 O         1 <0>         0.0004
  17853 WAT       -35.9320  -70.9160   -6.5830 O         1 <0>         0.0001
  17854 WAT       -35.9320  -70.9160   -6.3330 O         1 <0>         0.0000
  17855 WAT       -35.9320  -70.9160   -6.0830 O         1 <0>         0.0000
  17856 WAT       -35.9320  -70.9160   -5.8330 O         1 <0>         0.0000
  17857 WAT       -35.9320  -70.9160   -5.5830 O         1 <0>         0.0000
  17858 WAT       -35.9320  -70.9160   -5.3330 O         1 <0>         0.0000
  17859 WAT       -35.9320  -70.9160   -5.0830 O         1 <0>         0.0000
  17860 WAT       -35.9320  -70.9160   -4.8330 O         1 <0>         0.0000
  17861 WAT       -35.9320  -70.9160   -4.5830 O         1 <0>         0.0000
  17862 WAT       -35.9320  -70.9160   -4.3330 O         1 <0>         0.0000
  17863 WAT       -35.9320  -70.9160   -4.0830 O         1 <0>         0.0000
  17864 WAT       -35.9320  -70.9160   -3.8330 O         1 <0>         0.0000
  17865 WAT       -35.9320  -70.9160   -3.5830 O         1 <0>         0.0000
  17866 WAT       -35.9320  -70.9160   -3.3330 O         1 <0>         0.0000
  17867 WAT       -35.9320  -70.9160   -3.0830 O         1 <0>         0.0000
  17868 WAT       -35.9320  -70.9160   -2.8330 O         1 <0>         0.0000
  17869 WAT       -35.9320  -70.9160   -2.5830 O         1 <0>         0.0000
  17870 WAT       -35.9320  -70.9160   -2.3330 O         1 <0>         0.0000
  17871 WAT       -35.9320  -70.9160   -2.0830 O         1 <0>         0.0000
  17872 WAT       -35.9320  -70.9160   -1.8330 O         1 <0>         0.0000
  17873 WAT       -35.9320  -70.9160   -1.5830 O         1 <0>         0.0000
  17874 WAT       -35.9320  -70.9160   -1.3330 O         1 <0>         0.0000
  17875 WAT       -35.9320  -70.9160   -1.0830 O         1 <0>         0.0000
  17876 WAT       -35.9320  -70.9160   -0.8330 O         1 <0>         0.0000
  17877 WAT       -35.9320  -70.9160   -0.5830 O         1 <0>         0.0000
  17878 WAT       -35.9320  -70.9160   -0.3330 O         1 <0>         0.0000
  17879 WAT       -35.9320  -70.9160   -0.0830 O         1 <0>         0.0000
  17880 WAT       -35.9320  -70.6660   -9.8330 O         1 <0>         0.0000
  17881 WAT       -35.9320  -70.6660   -9.5830 O         1 <0>         0.0000
  17882 WAT       -35.9320  -70.6660   -9.3330 O         1 <0>         0.0000
  17883 WAT       -35.9320  -70.6660   -9.0830 O         1 <0>         0.0000
  17884 WAT       -35.9320  -70.6660   -8.8330 O         1 <0>         0.0000
  17885 WAT       -35.9320  -70.6660   -8.5830 O         1 <0>         0.0000
  17886 WAT       -35.9320  -70.6660   -8.3330 O         1 <0>         0.0000
  17887 WAT       -35.9320  -70.6660   -8.0830 O         1 <0>         0.0000
  17888 WAT       -35.9320  -70.6660   -7.8330 O         1 <0>         0.0001
  17889 WAT       -35.9320  -70.6660   -7.5830 O         1 <0>         0.0002
  17890 WAT       -35.9320  -70.6660   -7.3330 O         1 <0>         0.0003
  17891 WAT       -35.9320  -70.6660   -7.0830 O         1 <0>         0.0003
  17892 WAT       -35.9320  -70.6660   -6.8330 O         1 <0>         0.0001
  17893 WAT       -35.9320  -70.6660   -6.5830 O         1 <0>         0.0000
  17894 WAT       -35.9320  -70.6660   -6.3330 O         1 <0>         0.0000
  17895 WAT       -35.9320  -70.6660   -6.0830 O         1 <0>         0.0000
  17896 WAT       -35.9320  -70.6660   -5.8330 O         1 <0>         0.0000
  17897 WAT       -35.9320  -70.6660   -5.5830 O         1 <0>         0.0000
  17898 WAT       -35.9320  -70.6660   -5.3330 O         1 <0>         0.0000
  17899 WAT       -35.9320  -70.6660   -5.0830 O         1 <0>         0.0000
  17900 WAT       -35.9320  -70.6660   -4.8330 O         1 <0>         0.0000
  17901 WAT       -35.9320  -70.6660   -4.5830 O         1 <0>         0.0000
  17902 WAT       -35.9320  -70.6660   -4.3330 O         1 <0>         0.0000
  17903 WAT       -35.9320  -70.6660   -4.0830 O         1 <0>         0.0000
  17904 WAT       -35.9320  -70.6660   -3.8330 O         1 <0>         0.0000
  17905 WAT       -35.9320  -70.6660   -3.5830 O         1 <0>         0.0000
  17906 WAT       -35.9320  -70.6660   -3.3330 O         1 <0>         0.0000
  17907 WAT       -35.9320  -70.6660   -3.0830 O         1 <0>         0.0000
  17908 WAT       -35.9320  -70.6660   -2.8330 O         1 <0>         0.0000
  17909 WAT       -35.9320  -70.6660   -2.5830 O         1 <0>         0.0000
  17910 WAT       -35.9320  -70.6660   -2.3330 O         1 <0>         0.0000
  17911 WAT       -35.9320  -70.6660   -2.0830 O         1 <0>         0.0000
  17912 WAT       -35.9320  -70.6660   -1.8330 O         1 <0>         0.0000
  17913 WAT       -35.9320  -70.6660   -1.5830 O         1 <0>         0.0000
  17914 WAT       -35.9320  -70.6660   -1.3330 O         1 <0>         0.0000
  17915 WAT       -35.9320  -70.6660   -1.0830 O         1 <0>         0.0000
  17916 WAT       -35.9320  -70.6660   -0.8330 O         1 <0>         0.0000
  17917 WAT       -35.9320  -70.6660   -0.5830 O         1 <0>         0.0000
  17918 WAT       -35.9320  -70.6660   -0.3330 O         1 <0>         0.0000
  17919 WAT       -35.9320  -70.6660   -0.0830 O         1 <0>         0.0000
  17920 WAT       -35.9320  -70.4160   -9.8330 O         1 <0>         0.0000
  17921 WAT       -35.9320  -70.4160   -9.5830 O         1 <0>         0.0000
  17922 WAT       -35.9320  -70.4160   -9.3330 O         1 <0>         0.0000
  17923 WAT       -35.9320  -70.4160   -9.0830 O         1 <0>         0.0000
  17924 WAT       -35.9320  -70.4160   -8.8330 O         1 <0>         0.0000
  17925 WAT       -35.9320  -70.4160   -8.5830 O         1 <0>         0.0000
  17926 WAT       -35.9320  -70.4160   -8.3330 O         1 <0>         0.0000
  17927 WAT       -35.9320  -70.4160   -8.0830 O         1 <0>         0.0000
  17928 WAT       -35.9320  -70.4160   -7.8330 O         1 <0>         0.0000
  17929 WAT       -35.9320  -70.4160   -7.5830 O         1 <0>         0.0000
  17930 WAT       -35.9320  -70.4160   -7.3330 O         1 <0>         0.0001
  17931 WAT       -35.9320  -70.4160   -7.0830 O         1 <0>         0.0001
  17932 WAT       -35.9320  -70.4160   -6.8330 O         1 <0>         0.0000
  17933 WAT       -35.9320  -70.4160   -6.5830 O         1 <0>         0.0000
  17934 WAT       -35.9320  -70.4160   -6.3330 O         1 <0>         0.0000
  17935 WAT       -35.9320  -70.4160   -6.0830 O         1 <0>         0.0000
  17936 WAT       -35.9320  -70.4160   -5.8330 O         1 <0>         0.0000
  17937 WAT       -35.9320  -70.4160   -5.5830 O         1 <0>         0.0000
  17938 WAT       -35.9320  -70.4160   -5.3330 O         1 <0>         0.0000
  17939 WAT       -35.9320  -70.4160   -5.0830 O         1 <0>         0.0000
  17940 WAT       -35.9320  -70.4160   -4.8330 O         1 <0>         0.0000
  17941 WAT       -35.9320  -70.4160   -4.5830 O         1 <0>         0.0000
  17942 WAT       -35.9320  -70.4160   -4.3330 O         1 <0>         0.0000
  17943 WAT       -35.9320  -70.4160   -4.0830 O         1 <0>         0.0000
  17944 WAT       -35.9320  -70.4160   -3.8330 O         1 <0>         0.0000
  17945 WAT       -35.9320  -70.4160   -3.5830 O         1 <0>         0.0000
  17946 WAT       -35.9320  -70.4160   -3.3330 O         1 <0>         0.0000
  17947 WAT       -35.9320  -70.4160   -3.0830 O         1 <0>         0.0000
  17948 WAT       -35.9320  -70.4160   -2.8330 O         1 <0>         0.0000
  17949 WAT       -35.9320  -70.4160   -2.5830 O         1 <0>         0.0000
  17950 WAT       -35.9320  -70.4160   -2.3330 O         1 <0>         0.0000
  17951 WAT       -35.9320  -70.4160   -2.0830 O         1 <0>         0.0000
  17952 WAT       -35.9320  -70.4160   -1.8330 O         1 <0>         0.0000
  17953 WAT       -35.9320  -70.4160   -1.5830 O         1 <0>         0.0000
  17954 WAT       -35.9320  -70.4160   -1.3330 O         1 <0>         0.0000
  17955 WAT       -35.9320  -70.4160   -1.0830 O         1 <0>         0.0000
  17956 WAT       -35.9320  -70.4160   -0.8330 O         1 <0>         0.0000
  17957 WAT       -35.9320  -70.4160   -0.5830 O         1 <0>         0.0000
  17958 WAT       -35.9320  -70.4160   -0.3330 O         1 <0>         0.0000
  17959 WAT       -35.9320  -70.4160   -0.0830 O         1 <0>         0.0000
  17960 WAT       -35.9320  -70.1660   -9.8330 O         1 <0>         0.0000
  17961 WAT       -35.9320  -70.1660   -9.5830 O         1 <0>         0.0000
  17962 WAT       -35.9320  -70.1660   -9.3330 O         1 <0>         0.0000
  17963 WAT       -35.9320  -70.1660   -9.0830 O         1 <0>         0.0000
  17964 WAT       -35.9320  -70.1660   -8.8330 O         1 <0>         0.0000
  17965 WAT       -35.9320  -70.1660   -8.5830 O         1 <0>         0.0000
  17966 WAT       -35.9320  -70.1660   -8.3330 O         1 <0>         0.0000
  17967 WAT       -35.9320  -70.1660   -8.0830 O         1 <0>         0.0000
  17968 WAT       -35.9320  -70.1660   -7.8330 O         1 <0>         0.0000
  17969 WAT       -35.9320  -70.1660   -7.5830 O         1 <0>         0.0000
  17970 WAT       -35.9320  -70.1660   -7.3330 O         1 <0>         0.0000
  17971 WAT       -35.9320  -70.1660   -7.0830 O         1 <0>         0.0000
  17972 WAT       -35.9320  -70.1660   -6.8330 O         1 <0>         0.0000
  17973 WAT       -35.9320  -70.1660   -6.5830 O         1 <0>         0.0000
  17974 WAT       -35.9320  -70.1660   -6.3330 O         1 <0>         0.0000
  17975 WAT       -35.9320  -70.1660   -6.0830 O         1 <0>         0.0000
  17976 WAT       -35.9320  -70.1660   -5.8330 O         1 <0>         0.0000
  17977 WAT       -35.9320  -70.1660   -5.5830 O         1 <0>         0.0000
  17978 WAT       -35.9320  -70.1660   -5.3330 O         1 <0>         0.0000
  17979 WAT       -35.9320  -70.1660   -5.0830 O         1 <0>         0.0000
  17980 WAT       -35.9320  -70.1660   -4.8330 O         1 <0>         0.0000
  17981 WAT       -35.9320  -70.1660   -4.5830 O         1 <0>         0.0000
  17982 WAT       -35.9320  -70.1660   -4.3330 O         1 <0>         0.0000
  17983 WAT       -35.9320  -70.1660   -4.0830 O         1 <0>         0.0000
  17984 WAT       -35.9320  -70.1660   -3.8330 O         1 <0>         0.0000
  17985 WAT       -35.9320  -70.1660   -3.5830 O         1 <0>         0.0000
  17986 WAT       -35.9320  -70.1660   -3.3330 O         1 <0>         0.0000
  17987 WAT       -35.9320  -70.1660   -3.0830 O         1 <0>         0.0000
  17988 WAT       -35.9320  -70.1660   -2.8330 O         1 <0>         0.0000
  17989 WAT       -35.9320  -70.1660   -2.5830 O         1 <0>         0.0000
  17990 WAT       -35.9320  -70.1660   -2.3330 O         1 <0>         0.0000
  17991 WAT       -35.9320  -70.1660   -2.0830 O         1 <0>         0.0000
  17992 WAT       -35.9320  -70.1660   -1.8330 O         1 <0>         0.0000
  17993 WAT       -35.9320  -70.1660   -1.5830 O         1 <0>         0.0000
  17994 WAT       -35.9320  -70.1660   -1.3330 O         1 <0>         0.0000
  17995 WAT       -35.9320  -70.1660   -1.0830 O         1 <0>         0.0000
  17996 WAT       -35.9320  -70.1660   -0.8330 O         1 <0>         0.0000
  17997 WAT       -35.9320  -70.1660   -0.5830 O         1 <0>         0.0000
  17998 WAT       -35.9320  -70.1660   -0.3330 O         1 <0>         0.0000
  17999 WAT       -35.9320  -70.1660   -0.0830 O         1 <0>         0.0000
  18000 WAT       -35.9320  -69.9160   -9.8330 O         1 <0>         0.0000
  18001 WAT       -35.9320  -69.9160   -9.5830 O         1 <0>         0.0000
  18002 WAT       -35.9320  -69.9160   -9.3330 O         1 <0>         0.0000
  18003 WAT       -35.9320  -69.9160   -9.0830 O         1 <0>         0.0000
  18004 WAT       -35.9320  -69.9160   -8.8330 O         1 <0>         0.0000
  18005 WAT       -35.9320  -69.9160   -8.5830 O         1 <0>         0.0000
  18006 WAT       -35.9320  -69.9160   -8.3330 O         1 <0>         0.0000
  18007 WAT       -35.9320  -69.9160   -8.0830 O         1 <0>         0.0000
  18008 WAT       -35.9320  -69.9160   -7.8330 O         1 <0>         0.0000
  18009 WAT       -35.9320  -69.9160   -7.5830 O         1 <0>         0.0000
  18010 WAT       -35.9320  -69.9160   -7.3330 O         1 <0>         0.0000
  18011 WAT       -35.9320  -69.9160   -7.0830 O         1 <0>         0.0000
  18012 WAT       -35.9320  -69.9160   -6.8330 O         1 <0>         0.0000
  18013 WAT       -35.9320  -69.9160   -6.5830 O         1 <0>         0.0000
  18014 WAT       -35.9320  -69.9160   -6.3330 O         1 <0>         0.0000
  18015 WAT       -35.9320  -69.9160   -6.0830 O         1 <0>         0.0000
  18016 WAT       -35.9320  -69.9160   -5.8330 O         1 <0>         0.0000
  18017 WAT       -35.9320  -69.9160   -5.5830 O         1 <0>         0.0000
  18018 WAT       -35.9320  -69.9160   -5.3330 O         1 <0>         0.0000
  18019 WAT       -35.9320  -69.9160   -5.0830 O         1 <0>         0.0000
  18020 WAT       -35.9320  -69.9160   -4.8330 O         1 <0>         0.0000
  18021 WAT       -35.9320  -69.9160   -4.5830 O         1 <0>         0.0000
  18022 WAT       -35.9320  -69.9160   -4.3330 O         1 <0>         0.0000
  18023 WAT       -35.9320  -69.9160   -4.0830 O         1 <0>         0.0000
  18024 WAT       -35.9320  -69.9160   -3.8330 O         1 <0>         0.0000
  18025 WAT       -35.9320  -69.9160   -3.5830 O         1 <0>         0.0000
  18026 WAT       -35.9320  -69.9160   -3.3330 O         1 <0>         0.0000
  18027 WAT       -35.9320  -69.9160   -3.0830 O         1 <0>         0.0000
  18028 WAT       -35.9320  -69.9160   -2.8330 O         1 <0>         0.0000
  18029 WAT       -35.9320  -69.9160   -2.5830 O         1 <0>         0.0000
  18030 WAT       -35.9320  -69.9160   -2.3330 O         1 <0>         0.0000
  18031 WAT       -35.9320  -69.9160   -2.0830 O         1 <0>         0.0000
  18032 WAT       -35.9320  -69.9160   -1.8330 O         1 <0>         0.0000
  18033 WAT       -35.9320  -69.9160   -1.5830 O         1 <0>         0.0000
  18034 WAT       -35.9320  -69.9160   -1.3330 O         1 <0>         0.0000
  18035 WAT       -35.9320  -69.9160   -1.0830 O         1 <0>         0.0000
  18036 WAT       -35.9320  -69.9160   -0.8330 O         1 <0>         0.0000
  18037 WAT       -35.9320  -69.9160   -0.5830 O         1 <0>         0.0000
  18038 WAT       -35.9320  -69.9160   -0.3330 O         1 <0>         0.0000
  18039 WAT       -35.9320  -69.9160   -0.0830 O         1 <0>         0.0000
  18040 WAT       -35.9320  -69.6660   -9.8330 O         1 <0>         0.0000
  18041 WAT       -35.9320  -69.6660   -9.5830 O         1 <0>         0.0000
  18042 WAT       -35.9320  -69.6660   -9.3330 O         1 <0>         0.0000
  18043 WAT       -35.9320  -69.6660   -9.0830 O         1 <0>         0.0000
  18044 WAT       -35.9320  -69.6660   -8.8330 O         1 <0>         0.0000
  18045 WAT       -35.9320  -69.6660   -8.5830 O         1 <0>         0.0000
  18046 WAT       -35.9320  -69.6660   -8.3330 O         1 <0>         0.0000
  18047 WAT       -35.9320  -69.6660   -8.0830 O         1 <0>         0.0000
  18048 WAT       -35.9320  -69.6660   -7.8330 O         1 <0>         0.0000
  18049 WAT       -35.9320  -69.6660   -7.5830 O         1 <0>         0.0000
  18050 WAT       -35.9320  -69.6660   -7.3330 O         1 <0>         0.0000
  18051 WAT       -35.9320  -69.6660   -7.0830 O         1 <0>         0.0000
  18052 WAT       -35.9320  -69.6660   -6.8330 O         1 <0>         0.0000
  18053 WAT       -35.9320  -69.6660   -6.5830 O         1 <0>         0.0000
  18054 WAT       -35.9320  -69.6660   -6.3330 O         1 <0>         0.0000
  18055 WAT       -35.9320  -69.6660   -6.0830 O         1 <0>         0.0000
  18056 WAT       -35.9320  -69.6660   -5.8330 O         1 <0>         0.0000
  18057 WAT       -35.9320  -69.6660   -5.5830 O         1 <0>         0.0000
  18058 WAT       -35.9320  -69.6660   -5.3330 O         1 <0>         0.0000
  18059 WAT       -35.9320  -69.6660   -5.0830 O         1 <0>         0.0000
  18060 WAT       -35.9320  -69.6660   -4.8330 O         1 <0>         0.0000
  18061 WAT       -35.9320  -69.6660   -4.5830 O         1 <0>         0.0000
  18062 WAT       -35.9320  -69.6660   -4.3330 O         1 <0>         0.0000
  18063 WAT       -35.9320  -69.6660   -4.0830 O         1 <0>         0.0000
  18064 WAT       -35.9320  -69.6660   -3.8330 O         1 <0>         0.0000
  18065 WAT       -35.9320  -69.6660   -3.5830 O         1 <0>         0.0000
  18066 WAT       -35.9320  -69.6660   -3.3330 O         1 <0>         0.0000
  18067 WAT       -35.9320  -69.6660   -3.0830 O         1 <0>         0.0000
  18068 WAT       -35.9320  -69.6660   -2.8330 O         1 <0>         0.0000
  18069 WAT       -35.9320  -69.6660   -2.5830 O         1 <0>         0.0000
  18070 WAT       -35.9320  -69.6660   -2.3330 O         1 <0>         0.0000
  18071 WAT       -35.9320  -69.6660   -2.0830 O         1 <0>         0.0000
  18072 WAT       -35.9320  -69.6660   -1.8330 O         1 <0>         0.0000
  18073 WAT       -35.9320  -69.6660   -1.5830 O         1 <0>         0.0000
  18074 WAT       -35.9320  -69.6660   -1.3330 O         1 <0>         0.0000
  18075 WAT       -35.9320  -69.6660   -1.0830 O         1 <0>         0.0000
  18076 WAT       -35.9320  -69.6660   -0.8330 O         1 <0>         0.0000
  18077 WAT       -35.9320  -69.6660   -0.5830 O         1 <0>         0.0000
  18078 WAT       -35.9320  -69.6660   -0.3330 O         1 <0>         0.0000
  18079 WAT       -35.9320  -69.6660   -0.0830 O         1 <0>         0.0000
  18080 WAT       -35.9320  -69.4160   -9.8330 O         1 <0>         0.0000
  18081 WAT       -35.9320  -69.4160   -9.5830 O         1 <0>         0.0000
  18082 WAT       -35.9320  -69.4160   -9.3330 O         1 <0>         0.0000
  18083 WAT       -35.9320  -69.4160   -9.0830 O         1 <0>         0.0000
  18084 WAT       -35.9320  -69.4160   -8.8330 O         1 <0>         0.0000
  18085 WAT       -35.9320  -69.4160   -8.5830 O         1 <0>         0.0000
  18086 WAT       -35.9320  -69.4160   -8.3330 O         1 <0>         0.0000
  18087 WAT       -35.9320  -69.4160   -8.0830 O         1 <0>         0.0000
  18088 WAT       -35.9320  -69.4160   -7.8330 O         1 <0>         0.0000
  18089 WAT       -35.9320  -69.4160   -7.5830 O         1 <0>         0.0000
  18090 WAT       -35.9320  -69.4160   -7.3330 O         1 <0>         0.0000
  18091 WAT       -35.9320  -69.4160   -7.0830 O         1 <0>         0.0000
  18092 WAT       -35.9320  -69.4160   -6.8330 O         1 <0>         0.0000
  18093 WAT       -35.9320  -69.4160   -6.5830 O         1 <0>         0.0000
  18094 WAT       -35.9320  -69.4160   -6.3330 O         1 <0>         0.0000
  18095 WAT       -35.9320  -69.4160   -6.0830 O         1 <0>         0.0000
  18096 WAT       -35.9320  -69.4160   -5.8330 O         1 <0>         0.0000
  18097 WAT       -35.9320  -69.4160   -5.5830 O         1 <0>         0.0000
  18098 WAT       -35.9320  -69.4160   -5.3330 O         1 <0>         0.0000
  18099 WAT       -35.9320  -69.4160   -5.0830 O         1 <0>         0.0000
  18100 WAT       -35.9320  -69.4160   -4.8330 O         1 <0>         0.0000
  18101 WAT       -35.9320  -69.4160   -4.5830 O         1 <0>         0.0000
  18102 WAT       -35.9320  -69.4160   -4.3330 O         1 <0>         0.0000
  18103 WAT       -35.9320  -69.4160   -4.0830 O         1 <0>         0.0000
  18104 WAT       -35.9320  -69.4160   -3.8330 O         1 <0>         0.0000
  18105 WAT       -35.9320  -69.4160   -3.5830 O         1 <0>         0.0000
  18106 WAT       -35.9320  -69.4160   -3.3330 O         1 <0>         0.0000
  18107 WAT       -35.9320  -69.4160   -3.0830 O         1 <0>         0.0000
  18108 WAT       -35.9320  -69.4160   -2.8330 O         1 <0>         0.0000
  18109 WAT       -35.9320  -69.4160   -2.5830 O         1 <0>         0.0000
  18110 WAT       -35.9320  -69.4160   -2.3330 O         1 <0>         0.0000
  18111 WAT       -35.9320  -69.4160   -2.0830 O         1 <0>         0.0000
  18112 WAT       -35.9320  -69.4160   -1.8330 O         1 <0>         0.0000
  18113 WAT       -35.9320  -69.4160   -1.5830 O         1 <0>         0.0000
  18114 WAT       -35.9320  -69.4160   -1.3330 O         1 <0>         0.0000
  18115 WAT       -35.9320  -69.4160   -1.0830 O         1 <0>         0.0000
  18116 WAT       -35.9320  -69.4160   -0.8330 O         1 <0>         0.0000
  18117 WAT       -35.9320  -69.4160   -0.5830 O         1 <0>         0.0000
  18118 WAT       -35.9320  -69.4160   -0.3330 O         1 <0>         0.0000
  18119 WAT       -35.9320  -69.4160   -0.0830 O         1 <0>         0.0000
  18120 WAT       -35.9320  -69.1660   -9.8330 O         1 <0>         0.0000
  18121 WAT       -35.9320  -69.1660   -9.5830 O         1 <0>         0.0000
  18122 WAT       -35.9320  -69.1660   -9.3330 O         1 <0>         0.0000
  18123 WAT       -35.9320  -69.1660   -9.0830 O         1 <0>         0.0000
  18124 WAT       -35.9320  -69.1660   -8.8330 O         1 <0>         0.0000
  18125 WAT       -35.9320  -69.1660   -8.5830 O         1 <0>         0.0000
  18126 WAT       -35.9320  -69.1660   -8.3330 O         1 <0>         0.0000
  18127 WAT       -35.9320  -69.1660   -8.0830 O         1 <0>         0.0000
  18128 WAT       -35.9320  -69.1660   -7.8330 O         1 <0>         0.0000
  18129 WAT       -35.9320  -69.1660   -7.5830 O         1 <0>         0.0000
  18130 WAT       -35.9320  -69.1660   -7.3330 O         1 <0>         0.0000
  18131 WAT       -35.9320  -69.1660   -7.0830 O         1 <0>         0.0000
  18132 WAT       -35.9320  -69.1660   -6.8330 O         1 <0>         0.0000
  18133 WAT       -35.9320  -69.1660   -6.5830 O         1 <0>         0.0000
  18134 WAT       -35.9320  -69.1660   -6.3330 O         1 <0>         0.0000
  18135 WAT       -35.9320  -69.1660   -6.0830 O         1 <0>         0.0000
  18136 WAT       -35.9320  -69.1660   -5.8330 O         1 <0>         0.0000
  18137 WAT       -35.9320  -69.1660   -5.5830 O         1 <0>         0.0000
  18138 WAT       -35.9320  -69.1660   -5.3330 O         1 <0>         0.0000
  18139 WAT       -35.9320  -69.1660   -5.0830 O         1 <0>         0.0000
  18140 WAT       -35.9320  -69.1660   -4.8330 O         1 <0>         0.0000
  18141 WAT       -35.9320  -69.1660   -4.5830 O         1 <0>         0.0000
  18142 WAT       -35.9320  -69.1660   -4.3330 O         1 <0>         0.0000
  18143 WAT       -35.9320  -69.1660   -4.0830 O         1 <0>         0.0000
  18144 WAT       -35.9320  -69.1660   -3.8330 O         1 <0>         0.0000
  18145 WAT       -35.9320  -69.1660   -3.5830 O         1 <0>         0.0000
  18146 WAT       -35.9320  -69.1660   -3.3330 O         1 <0>         0.0000
  18147 WAT       -35.9320  -69.1660   -3.0830 O         1 <0>         0.0000
  18148 WAT       -35.9320  -69.1660   -2.8330 O         1 <0>         0.0000
  18149 WAT       -35.9320  -69.1660   -2.5830 O         1 <0>         0.0000
  18150 WAT       -35.9320  -69.1660   -2.3330 O         1 <0>         0.0000
  18151 WAT       -35.9320  -69.1660   -2.0830 O         1 <0>         0.0000
  18152 WAT       -35.9320  -69.1660   -1.8330 O         1 <0>         0.0000
  18153 WAT       -35.9320  -69.1660   -1.5830 O         1 <0>         0.0000
  18154 WAT       -35.9320  -69.1660   -1.3330 O         1 <0>         0.0000
  18155 WAT       -35.9320  -69.1660   -1.0830 O         1 <0>         0.0000
  18156 WAT       -35.9320  -69.1660   -0.8330 O         1 <0>         0.0000
  18157 WAT       -35.9320  -69.1660   -0.5830 O         1 <0>         0.0000
  18158 WAT       -35.9320  -69.1660   -0.3330 O         1 <0>         0.0000
  18159 WAT       -35.9320  -69.1660   -0.0830 O         1 <0>         0.0000
  18160 WAT       -35.9320  -68.9160   -9.8330 O         1 <0>         0.0000
  18161 WAT       -35.9320  -68.9160   -9.5830 O         1 <0>         0.0000
  18162 WAT       -35.9320  -68.9160   -9.3330 O         1 <0>         0.0000
  18163 WAT       -35.9320  -68.9160   -9.0830 O         1 <0>         0.0000
  18164 WAT       -35.9320  -68.9160   -8.8330 O         1 <0>         0.0000
  18165 WAT       -35.9320  -68.9160   -8.5830 O         1 <0>         0.0000
  18166 WAT       -35.9320  -68.9160   -8.3330 O         1 <0>         0.0000
  18167 WAT       -35.9320  -68.9160   -8.0830 O         1 <0>         0.0000
  18168 WAT       -35.9320  -68.9160   -7.8330 O         1 <0>         0.0000
  18169 WAT       -35.9320  -68.9160   -7.5830 O         1 <0>         0.0000
  18170 WAT       -35.9320  -68.9160   -7.3330 O         1 <0>         0.0000
  18171 WAT       -35.9320  -68.9160   -7.0830 O         1 <0>         0.0000
  18172 WAT       -35.9320  -68.9160   -6.8330 O         1 <0>         0.0000
  18173 WAT       -35.9320  -68.9160   -6.5830 O         1 <0>         0.0000
  18174 WAT       -35.9320  -68.9160   -6.3330 O         1 <0>         0.0000
  18175 WAT       -35.9320  -68.9160   -6.0830 O         1 <0>         0.0000
  18176 WAT       -35.9320  -68.9160   -5.8330 O         1 <0>         0.0000
  18177 WAT       -35.9320  -68.9160   -5.5830 O         1 <0>         0.0000
  18178 WAT       -35.9320  -68.9160   -5.3330 O         1 <0>         0.0000
  18179 WAT       -35.9320  -68.9160   -5.0830 O         1 <0>         0.0000
  18180 WAT       -35.9320  -68.9160   -4.8330 O         1 <0>         0.0000
  18181 WAT       -35.9320  -68.9160   -4.5830 O         1 <0>         0.0000
  18182 WAT       -35.9320  -68.9160   -4.3330 O         1 <0>         0.0000
  18183 WAT       -35.9320  -68.9160   -4.0830 O         1 <0>         0.0000
  18184 WAT       -35.9320  -68.9160   -3.8330 O         1 <0>         0.0000
  18185 WAT       -35.9320  -68.9160   -3.5830 O         1 <0>         0.0000
  18186 WAT       -35.9320  -68.9160   -3.3330 O         1 <0>         0.0000
  18187 WAT       -35.9320  -68.9160   -3.0830 O         1 <0>         0.0000
  18188 WAT       -35.9320  -68.9160   -2.8330 O         1 <0>         0.0000
  18189 WAT       -35.9320  -68.9160   -2.5830 O         1 <0>         0.0000
  18190 WAT       -35.9320  -68.9160   -2.3330 O         1 <0>         0.0000
  18191 WAT       -35.9320  -68.9160   -2.0830 O         1 <0>         0.0000
  18192 WAT       -35.9320  -68.9160   -1.8330 O         1 <0>         0.0000
  18193 WAT       -35.9320  -68.9160   -1.5830 O         1 <0>         0.0000
  18194 WAT       -35.9320  -68.9160   -1.3330 O         1 <0>         0.0000
  18195 WAT       -35.9320  -68.9160   -1.0830 O         1 <0>         0.0000
  18196 WAT       -35.9320  -68.9160   -0.8330 O         1 <0>         0.0000
  18197 WAT       -35.9320  -68.9160   -0.5830 O         1 <0>         0.0000
  18198 WAT       -35.9320  -68.9160   -0.3330 O         1 <0>         0.0000
  18199 WAT       -35.9320  -68.9160   -0.0830 O         1 <0>         0.0000
  18200 WAT       -35.6820  -77.4160   -9.8330 O         1 <0>         0.0000
  18201 WAT       -35.6820  -77.4160   -9.5830 O         1 <0>         0.0000
  18202 WAT       -35.6820  -77.4160   -9.3330 O         1 <0>         0.0000
  18203 WAT       -35.6820  -77.4160   -9.0830 O         1 <0>         0.0000
  18204 WAT       -35.6820  -77.4160   -8.8330 O         1 <0>         0.0000
  18205 WAT       -35.6820  -77.4160   -8.5830 O         1 <0>         0.0000
  18206 WAT       -35.6820  -77.4160   -8.3330 O         1 <0>         0.0000
  18207 WAT       -35.6820  -77.4160   -8.0830 O         1 <0>         0.0000
  18208 WAT       -35.6820  -77.4160   -7.8330 O         1 <0>         0.0000
  18209 WAT       -35.6820  -77.4160   -7.5830 O         1 <0>         0.0000
  18210 WAT       -35.6820  -77.4160   -7.3330 O         1 <0>         0.0000
  18211 WAT       -35.6820  -77.4160   -7.0830 O         1 <0>         0.0000
  18212 WAT       -35.6820  -77.4160   -6.8330 O         1 <0>         0.0000
  18213 WAT       -35.6820  -77.4160   -6.5830 O         1 <0>         0.0000
  18214 WAT       -35.6820  -77.4160   -6.3330 O         1 <0>         0.0000
  18215 WAT       -35.6820  -77.4160   -6.0830 O         1 <0>         0.0000
  18216 WAT       -35.6820  -77.4160   -5.8330 O         1 <0>         0.0000
  18217 WAT       -35.6820  -77.4160   -5.5830 O         1 <0>         0.0000
  18218 WAT       -35.6820  -77.4160   -5.3330 O         1 <0>         0.0000
  18219 WAT       -35.6820  -77.4160   -5.0830 O         1 <0>         0.0000
  18220 WAT       -35.6820  -77.4160   -4.8330 O         1 <0>         0.0000
  18221 WAT       -35.6820  -77.4160   -4.5830 O         1 <0>         0.0000
  18222 WAT       -35.6820  -77.4160   -4.3330 O         1 <0>         0.0000
  18223 WAT       -35.6820  -77.4160   -4.0830 O         1 <0>         0.0000
  18224 WAT       -35.6820  -77.4160   -3.8330 O         1 <0>         0.0000
  18225 WAT       -35.6820  -77.4160   -3.5830 O         1 <0>         0.0000
  18226 WAT       -35.6820  -77.4160   -3.3330 O         1 <0>         0.0000
  18227 WAT       -35.6820  -77.4160   -3.0830 O         1 <0>         0.0000
  18228 WAT       -35.6820  -77.4160   -2.8330 O         1 <0>         0.0000
  18229 WAT       -35.6820  -77.4160   -2.5830 O         1 <0>         0.0000
  18230 WAT       -35.6820  -77.4160   -2.3330 O         1 <0>         0.0000
  18231 WAT       -35.6820  -77.4160   -2.0830 O         1 <0>         0.0000
  18232 WAT       -35.6820  -77.4160   -1.8330 O         1 <0>         0.0000
  18233 WAT       -35.6820  -77.4160   -1.5830 O         1 <0>         0.0000
  18234 WAT       -35.6820  -77.4160   -1.3330 O         1 <0>         0.0000
  18235 WAT       -35.6820  -77.4160   -1.0830 O         1 <0>         0.0000
  18236 WAT       -35.6820  -77.4160   -0.8330 O         1 <0>         0.0000
  18237 WAT       -35.6820  -77.4160   -0.5830 O         1 <0>         0.0000
  18238 WAT       -35.6820  -77.4160   -0.3330 O         1 <0>         0.0000
  18239 WAT       -35.6820  -77.4160   -0.0830 O         1 <0>         0.0000
  18240 WAT       -35.6820  -77.1660   -9.8330 O         1 <0>         0.0000
  18241 WAT       -35.6820  -77.1660   -9.5830 O         1 <0>         0.0000
  18242 WAT       -35.6820  -77.1660   -9.3330 O         1 <0>         0.0000
  18243 WAT       -35.6820  -77.1660   -9.0830 O         1 <0>         0.0000
  18244 WAT       -35.6820  -77.1660   -8.8330 O         1 <0>         0.0000
  18245 WAT       -35.6820  -77.1660   -8.5830 O         1 <0>         0.0000
  18246 WAT       -35.6820  -77.1660   -8.3330 O         1 <0>         0.0000
  18247 WAT       -35.6820  -77.1660   -8.0830 O         1 <0>         0.0000
  18248 WAT       -35.6820  -77.1660   -7.8330 O         1 <0>         0.0000
  18249 WAT       -35.6820  -77.1660   -7.5830 O         1 <0>         0.0000
  18250 WAT       -35.6820  -77.1660   -7.3330 O         1 <0>         0.0000
  18251 WAT       -35.6820  -77.1660   -7.0830 O         1 <0>         0.0000
  18252 WAT       -35.6820  -77.1660   -6.8330 O         1 <0>         0.0000
  18253 WAT       -35.6820  -77.1660   -6.5830 O         1 <0>         0.0000
  18254 WAT       -35.6820  -77.1660   -6.3330 O         1 <0>         0.0000
  18255 WAT       -35.6820  -77.1660   -6.0830 O         1 <0>         0.0000
  18256 WAT       -35.6820  -77.1660   -5.8330 O         1 <0>         0.0000
  18257 WAT       -35.6820  -77.1660   -5.5830 O         1 <0>         0.0000
  18258 WAT       -35.6820  -77.1660   -5.3330 O         1 <0>         0.0000
  18259 WAT       -35.6820  -77.1660   -5.0830 O         1 <0>         0.0000
  18260 WAT       -35.6820  -77.1660   -4.8330 O         1 <0>         0.0000
  18261 WAT       -35.6820  -77.1660   -4.5830 O         1 <0>         0.0000
  18262 WAT       -35.6820  -77.1660   -4.3330 O         1 <0>         0.0000
  18263 WAT       -35.6820  -77.1660   -4.0830 O         1 <0>         0.0000
  18264 WAT       -35.6820  -77.1660   -3.8330 O         1 <0>         0.0000
  18265 WAT       -35.6820  -77.1660   -3.5830 O         1 <0>         0.0000
  18266 WAT       -35.6820  -77.1660   -3.3330 O         1 <0>         0.0000
  18267 WAT       -35.6820  -77.1660   -3.0830 O         1 <0>         0.0000
  18268 WAT       -35.6820  -77.1660   -2.8330 O         1 <0>         0.0000
  18269 WAT       -35.6820  -77.1660   -2.5830 O         1 <0>         0.0000
  18270 WAT       -35.6820  -77.1660   -2.3330 O         1 <0>         0.0000
  18271 WAT       -35.6820  -77.1660   -2.0830 O         1 <0>         0.0000
  18272 WAT       -35.6820  -77.1660   -1.8330 O         1 <0>         0.0000
  18273 WAT       -35.6820  -77.1660   -1.5830 O         1 <0>         0.0000
  18274 WAT       -35.6820  -77.1660   -1.3330 O         1 <0>         0.0000
  18275 WAT       -35.6820  -77.1660   -1.0830 O         1 <0>         0.0000
  18276 WAT       -35.6820  -77.1660   -0.8330 O         1 <0>         0.0000
  18277 WAT       -35.6820  -77.1660   -0.5830 O         1 <0>         0.0000
  18278 WAT       -35.6820  -77.1660   -0.3330 O         1 <0>         0.0000
  18279 WAT       -35.6820  -77.1660   -0.0830 O         1 <0>         0.0000
  18280 WAT       -35.6820  -76.9160   -9.8330 O         1 <0>         0.0000
  18281 WAT       -35.6820  -76.9160   -9.5830 O         1 <0>         0.0000
  18282 WAT       -35.6820  -76.9160   -9.3330 O         1 <0>         0.0000
  18283 WAT       -35.6820  -76.9160   -9.0830 O         1 <0>         0.0000
  18284 WAT       -35.6820  -76.9160   -8.8330 O         1 <0>         0.0000
  18285 WAT       -35.6820  -76.9160   -8.5830 O         1 <0>         0.0000
  18286 WAT       -35.6820  -76.9160   -8.3330 O         1 <0>         0.0000
  18287 WAT       -35.6820  -76.9160   -8.0830 O         1 <0>         0.0000
  18288 WAT       -35.6820  -76.9160   -7.8330 O         1 <0>         0.0000
  18289 WAT       -35.6820  -76.9160   -7.5830 O         1 <0>         0.0000
  18290 WAT       -35.6820  -76.9160   -7.3330 O         1 <0>         0.0000
  18291 WAT       -35.6820  -76.9160   -7.0830 O         1 <0>         0.0000
  18292 WAT       -35.6820  -76.9160   -6.8330 O         1 <0>         0.0000
  18293 WAT       -35.6820  -76.9160   -6.5830 O         1 <0>         0.0000
  18294 WAT       -35.6820  -76.9160   -6.3330 O         1 <0>         0.0000
  18295 WAT       -35.6820  -76.9160   -6.0830 O         1 <0>         0.0000
  18296 WAT       -35.6820  -76.9160   -5.8330 O         1 <0>         0.0000
  18297 WAT       -35.6820  -76.9160   -5.5830 O         1 <0>         0.0000
  18298 WAT       -35.6820  -76.9160   -5.3330 O         1 <0>         0.0000
  18299 WAT       -35.6820  -76.9160   -5.0830 O         1 <0>         0.0000
  18300 WAT       -35.6820  -76.9160   -4.8330 O         1 <0>         0.0000
  18301 WAT       -35.6820  -76.9160   -4.5830 O         1 <0>         0.0000
  18302 WAT       -35.6820  -76.9160   -4.3330 O         1 <0>         0.0000
  18303 WAT       -35.6820  -76.9160   -4.0830 O         1 <0>         0.0000
  18304 WAT       -35.6820  -76.9160   -3.8330 O         1 <0>         0.0000
  18305 WAT       -35.6820  -76.9160   -3.5830 O         1 <0>         0.0000
  18306 WAT       -35.6820  -76.9160   -3.3330 O         1 <0>         0.0000
  18307 WAT       -35.6820  -76.9160   -3.0830 O         1 <0>         0.0000
  18308 WAT       -35.6820  -76.9160   -2.8330 O         1 <0>         0.0000
  18309 WAT       -35.6820  -76.9160   -2.5830 O         1 <0>         0.0000
  18310 WAT       -35.6820  -76.9160   -2.3330 O         1 <0>         0.0000
  18311 WAT       -35.6820  -76.9160   -2.0830 O         1 <0>         0.0000
  18312 WAT       -35.6820  -76.9160   -1.8330 O         1 <0>         0.0000
  18313 WAT       -35.6820  -76.9160   -1.5830 O         1 <0>         0.0000
  18314 WAT       -35.6820  -76.9160   -1.3330 O         1 <0>         0.0000
  18315 WAT       -35.6820  -76.9160   -1.0830 O         1 <0>         0.0000
  18316 WAT       -35.6820  -76.9160   -0.8330 O         1 <0>         0.0000
  18317 WAT       -35.6820  -76.9160   -0.5830 O         1 <0>         0.0000
  18318 WAT       -35.6820  -76.9160   -0.3330 O         1 <0>         0.0000
  18319 WAT       -35.6820  -76.9160   -0.0830 O         1 <0>         0.0000
  18320 WAT       -35.6820  -76.6660   -9.8330 O         1 <0>         0.0000
  18321 WAT       -35.6820  -76.6660   -9.5830 O         1 <0>         0.0000
  18322 WAT       -35.6820  -76.6660   -9.3330 O         1 <0>         0.0000
  18323 WAT       -35.6820  -76.6660   -9.0830 O         1 <0>         0.0000
  18324 WAT       -35.6820  -76.6660   -8.8330 O         1 <0>         0.0000
  18325 WAT       -35.6820  -76.6660   -8.5830 O         1 <0>         0.0000
  18326 WAT       -35.6820  -76.6660   -8.3330 O         1 <0>         0.0000
  18327 WAT       -35.6820  -76.6660   -8.0830 O         1 <0>         0.0000
  18328 WAT       -35.6820  -76.6660   -7.8330 O         1 <0>         0.0000
  18329 WAT       -35.6820  -76.6660   -7.5830 O         1 <0>         0.0000
  18330 WAT       -35.6820  -76.6660   -7.3330 O         1 <0>         0.0000
  18331 WAT       -35.6820  -76.6660   -7.0830 O         1 <0>         0.0000
  18332 WAT       -35.6820  -76.6660   -6.8330 O         1 <0>         0.0000
  18333 WAT       -35.6820  -76.6660   -6.5830 O         1 <0>         0.0000
  18334 WAT       -35.6820  -76.6660   -6.3330 O         1 <0>         0.0000
  18335 WAT       -35.6820  -76.6660   -6.0830 O         1 <0>         0.0000
  18336 WAT       -35.6820  -76.6660   -5.8330 O         1 <0>         0.0000
  18337 WAT       -35.6820  -76.6660   -5.5830 O         1 <0>         0.0000
  18338 WAT       -35.6820  -76.6660   -5.3330 O         1 <0>         0.0000
  18339 WAT       -35.6820  -76.6660   -5.0830 O         1 <0>         0.0000
  18340 WAT       -35.6820  -76.6660   -4.8330 O         1 <0>         0.0000
  18341 WAT       -35.6820  -76.6660   -4.5830 O         1 <0>         0.0000
  18342 WAT       -35.6820  -76.6660   -4.3330 O         1 <0>         0.0000
  18343 WAT       -35.6820  -76.6660   -4.0830 O         1 <0>         0.0000
  18344 WAT       -35.6820  -76.6660   -3.8330 O         1 <0>         0.0000
  18345 WAT       -35.6820  -76.6660   -3.5830 O         1 <0>         0.0000
  18346 WAT       -35.6820  -76.6660   -3.3330 O         1 <0>         0.0000
  18347 WAT       -35.6820  -76.6660   -3.0830 O         1 <0>         0.0000
  18348 WAT       -35.6820  -76.6660   -2.8330 O         1 <0>         0.0000
  18349 WAT       -35.6820  -76.6660   -2.5830 O         1 <0>         0.0000
  18350 WAT       -35.6820  -76.6660   -2.3330 O         1 <0>         0.0000
  18351 WAT       -35.6820  -76.6660   -2.0830 O         1 <0>         0.0000
  18352 WAT       -35.6820  -76.6660   -1.8330 O         1 <0>         0.0000
  18353 WAT       -35.6820  -76.6660   -1.5830 O         1 <0>         0.0000
  18354 WAT       -35.6820  -76.6660   -1.3330 O         1 <0>         0.0000
  18355 WAT       -35.6820  -76.6660   -1.0830 O         1 <0>         0.0000
  18356 WAT       -35.6820  -76.6660   -0.8330 O         1 <0>         0.0000
  18357 WAT       -35.6820  -76.6660   -0.5830 O         1 <0>         0.0000
  18358 WAT       -35.6820  -76.6660   -0.3330 O         1 <0>         0.0000
  18359 WAT       -35.6820  -76.6660   -0.0830 O         1 <0>         0.0000
  18360 WAT       -35.6820  -76.4160   -9.8330 O         1 <0>         0.0000
  18361 WAT       -35.6820  -76.4160   -9.5830 O         1 <0>         0.0000
  18362 WAT       -35.6820  -76.4160   -9.3330 O         1 <0>         0.0000
  18363 WAT       -35.6820  -76.4160   -9.0830 O         1 <0>         0.0000
  18364 WAT       -35.6820  -76.4160   -8.8330 O         1 <0>         0.0000
  18365 WAT       -35.6820  -76.4160   -8.5830 O         1 <0>         0.0000
  18366 WAT       -35.6820  -76.4160   -8.3330 O         1 <0>         0.0000
  18367 WAT       -35.6820  -76.4160   -8.0830 O         1 <0>         0.0000
  18368 WAT       -35.6820  -76.4160   -7.8330 O         1 <0>         0.0000
  18369 WAT       -35.6820  -76.4160   -7.5830 O         1 <0>         0.0000
  18370 WAT       -35.6820  -76.4160   -7.3330 O         1 <0>         0.0000
  18371 WAT       -35.6820  -76.4160   -7.0830 O         1 <0>         0.0000
  18372 WAT       -35.6820  -76.4160   -6.8330 O         1 <0>         0.0000
  18373 WAT       -35.6820  -76.4160   -6.5830 O         1 <0>         0.0000
  18374 WAT       -35.6820  -76.4160   -6.3330 O         1 <0>         0.0000
  18375 WAT       -35.6820  -76.4160   -6.0830 O         1 <0>         0.0000
  18376 WAT       -35.6820  -76.4160   -5.8330 O         1 <0>         0.0000
  18377 WAT       -35.6820  -76.4160   -5.5830 O         1 <0>         0.0000
  18378 WAT       -35.6820  -76.4160   -5.3330 O         1 <0>         0.0000
  18379 WAT       -35.6820  -76.4160   -5.0830 O         1 <0>         0.0000
  18380 WAT       -35.6820  -76.4160   -4.8330 O         1 <0>         0.0000
  18381 WAT       -35.6820  -76.4160   -4.5830 O         1 <0>         0.0000
  18382 WAT       -35.6820  -76.4160   -4.3330 O         1 <0>         0.0000
  18383 WAT       -35.6820  -76.4160   -4.0830 O         1 <0>         0.0000
  18384 WAT       -35.6820  -76.4160   -3.8330 O         1 <0>         0.0000
  18385 WAT       -35.6820  -76.4160   -3.5830 O         1 <0>         0.0000
  18386 WAT       -35.6820  -76.4160   -3.3330 O         1 <0>         0.0000
  18387 WAT       -35.6820  -76.4160   -3.0830 O         1 <0>         0.0000
  18388 WAT       -35.6820  -76.4160   -2.8330 O         1 <0>         0.0000
  18389 WAT       -35.6820  -76.4160   -2.5830 O         1 <0>         0.0000
  18390 WAT       -35.6820  -76.4160   -2.3330 O         1 <0>         0.0000
  18391 WAT       -35.6820  -76.4160   -2.0830 O         1 <0>         0.0000
  18392 WAT       -35.6820  -76.4160   -1.8330 O         1 <0>         0.0000
  18393 WAT       -35.6820  -76.4160   -1.5830 O         1 <0>         0.0000
  18394 WAT       -35.6820  -76.4160   -1.3330 O         1 <0>         0.0000
  18395 WAT       -35.6820  -76.4160   -1.0830 O         1 <0>         0.0000
  18396 WAT       -35.6820  -76.4160   -0.8330 O         1 <0>         0.0000
  18397 WAT       -35.6820  -76.4160   -0.5830 O         1 <0>         0.0000
  18398 WAT       -35.6820  -76.4160   -0.3330 O         1 <0>         0.0000
  18399 WAT       -35.6820  -76.4160   -0.0830 O         1 <0>         0.0000
  18400 WAT       -35.6820  -76.1660   -9.8330 O         1 <0>         0.0000
  18401 WAT       -35.6820  -76.1660   -9.5830 O         1 <0>         0.0000
  18402 WAT       -35.6820  -76.1660   -9.3330 O         1 <0>         0.0000
  18403 WAT       -35.6820  -76.1660   -9.0830 O         1 <0>         0.0000
  18404 WAT       -35.6820  -76.1660   -8.8330 O         1 <0>         0.0000
  18405 WAT       -35.6820  -76.1660   -8.5830 O         1 <0>         0.0000
  18406 WAT       -35.6820  -76.1660   -8.3330 O         1 <0>         0.0000
  18407 WAT       -35.6820  -76.1660   -8.0830 O         1 <0>         0.0000
  18408 WAT       -35.6820  -76.1660   -7.8330 O         1 <0>         0.0000
  18409 WAT       -35.6820  -76.1660   -7.5830 O         1 <0>         0.0000
  18410 WAT       -35.6820  -76.1660   -7.3330 O         1 <0>         0.0000
  18411 WAT       -35.6820  -76.1660   -7.0830 O         1 <0>         0.0000
  18412 WAT       -35.6820  -76.1660   -6.8330 O         1 <0>         0.0000
  18413 WAT       -35.6820  -76.1660   -6.5830 O         1 <0>         0.0000
  18414 WAT       -35.6820  -76.1660   -6.3330 O         1 <0>         0.0000
  18415 WAT       -35.6820  -76.1660   -6.0830 O         1 <0>         0.0000
  18416 WAT       -35.6820  -76.1660   -5.8330 O         1 <0>         0.0000
  18417 WAT       -35.6820  -76.1660   -5.5830 O         1 <0>         0.0000
  18418 WAT       -35.6820  -76.1660   -5.3330 O         1 <0>         0.0000
  18419 WAT       -35.6820  -76.1660   -5.0830 O         1 <0>         0.0000
  18420 WAT       -35.6820  -76.1660   -4.8330 O         1 <0>         0.0000
  18421 WAT       -35.6820  -76.1660   -4.5830 O         1 <0>         0.0000
  18422 WAT       -35.6820  -76.1660   -4.3330 O         1 <0>         0.0000
  18423 WAT       -35.6820  -76.1660   -4.0830 O         1 <0>         0.0000
  18424 WAT       -35.6820  -76.1660   -3.8330 O         1 <0>         0.0001
  18425 WAT       -35.6820  -76.1660   -3.5830 O         1 <0>         0.0001
  18426 WAT       -35.6820  -76.1660   -3.3330 O         1 <0>         0.0001
  18427 WAT       -35.6820  -76.1660   -3.0830 O         1 <0>         0.0001
  18428 WAT       -35.6820  -76.1660   -2.8330 O         1 <0>         0.0000
  18429 WAT       -35.6820  -76.1660   -2.5830 O         1 <0>         0.0000
  18430 WAT       -35.6820  -76.1660   -2.3330 O         1 <0>         0.0000
  18431 WAT       -35.6820  -76.1660   -2.0830 O         1 <0>         0.0000
  18432 WAT       -35.6820  -76.1660   -1.8330 O         1 <0>         0.0000
  18433 WAT       -35.6820  -76.1660   -1.5830 O         1 <0>         0.0000
  18434 WAT       -35.6820  -76.1660   -1.3330 O         1 <0>         0.0000
  18435 WAT       -35.6820  -76.1660   -1.0830 O         1 <0>         0.0000
  18436 WAT       -35.6820  -76.1660   -0.8330 O         1 <0>         0.0000
  18437 WAT       -35.6820  -76.1660   -0.5830 O         1 <0>         0.0000
  18438 WAT       -35.6820  -76.1660   -0.3330 O         1 <0>         0.0000
  18439 WAT       -35.6820  -76.1660   -0.0830 O         1 <0>         0.0000
  18440 WAT       -35.6820  -75.9160   -9.8330 O         1 <0>         0.0000
  18441 WAT       -35.6820  -75.9160   -9.5830 O         1 <0>         0.0000
  18442 WAT       -35.6820  -75.9160   -9.3330 O         1 <0>         0.0000
  18443 WAT       -35.6820  -75.9160   -9.0830 O         1 <0>         0.0000
  18444 WAT       -35.6820  -75.9160   -8.8330 O         1 <0>         0.0000
  18445 WAT       -35.6820  -75.9160   -8.5830 O         1 <0>         0.0000
  18446 WAT       -35.6820  -75.9160   -8.3330 O         1 <0>         0.0000
  18447 WAT       -35.6820  -75.9160   -8.0830 O         1 <0>         0.0000
  18448 WAT       -35.6820  -75.9160   -7.8330 O         1 <0>         0.0000
  18449 WAT       -35.6820  -75.9160   -7.5830 O         1 <0>         0.0000
  18450 WAT       -35.6820  -75.9160   -7.3330 O         1 <0>         0.0000
  18451 WAT       -35.6820  -75.9160   -7.0830 O         1 <0>         0.0000
  18452 WAT       -35.6820  -75.9160   -6.8330 O         1 <0>         0.0000
  18453 WAT       -35.6820  -75.9160   -6.5830 O         1 <0>         0.0000
  18454 WAT       -35.6820  -75.9160   -6.3330 O         1 <0>         0.0000
  18455 WAT       -35.6820  -75.9160   -6.0830 O         1 <0>         0.0000
  18456 WAT       -35.6820  -75.9160   -5.8330 O         1 <0>         0.0000
  18457 WAT       -35.6820  -75.9160   -5.5830 O         1 <0>         0.0000
  18458 WAT       -35.6820  -75.9160   -5.3330 O         1 <0>         0.0000
  18459 WAT       -35.6820  -75.9160   -5.0830 O         1 <0>         0.0000
  18460 WAT       -35.6820  -75.9160   -4.8330 O         1 <0>         0.0000
  18461 WAT       -35.6820  -75.9160   -4.5830 O         1 <0>         0.0000
  18462 WAT       -35.6820  -75.9160   -4.3330 O         1 <0>         0.0000
  18463 WAT       -35.6820  -75.9160   -4.0830 O         1 <0>         0.0002
  18464 WAT       -35.6820  -75.9160   -3.8330 O         1 <0>         0.0004
  18465 WAT       -35.6820  -75.9160   -3.5830 O         1 <0>         0.0005
  18466 WAT       -35.6820  -75.9160   -3.3330 O         1 <0>         0.0005
  18467 WAT       -35.6820  -75.9160   -3.0830 O         1 <0>         0.0003
  18468 WAT       -35.6820  -75.9160   -2.8330 O         1 <0>         0.0001
  18469 WAT       -35.6820  -75.9160   -2.5830 O         1 <0>         0.0000
  18470 WAT       -35.6820  -75.9160   -2.3330 O         1 <0>         0.0000
  18471 WAT       -35.6820  -75.9160   -2.0830 O         1 <0>         0.0000
  18472 WAT       -35.6820  -75.9160   -1.8330 O         1 <0>         0.0000
  18473 WAT       -35.6820  -75.9160   -1.5830 O         1 <0>         0.0000
  18474 WAT       -35.6820  -75.9160   -1.3330 O         1 <0>         0.0000
  18475 WAT       -35.6820  -75.9160   -1.0830 O         1 <0>         0.0000
  18476 WAT       -35.6820  -75.9160   -0.8330 O         1 <0>         0.0000
  18477 WAT       -35.6820  -75.9160   -0.5830 O         1 <0>         0.0000
  18478 WAT       -35.6820  -75.9160   -0.3330 O         1 <0>         0.0000
  18479 WAT       -35.6820  -75.9160   -0.0830 O         1 <0>         0.0000
  18480 WAT       -35.6820  -75.6660   -9.8330 O         1 <0>         0.0000
  18481 WAT       -35.6820  -75.6660   -9.5830 O         1 <0>         0.0000
  18482 WAT       -35.6820  -75.6660   -9.3330 O         1 <0>         0.0000
  18483 WAT       -35.6820  -75.6660   -9.0830 O         1 <0>         0.0000
  18484 WAT       -35.6820  -75.6660   -8.8330 O         1 <0>         0.0000
  18485 WAT       -35.6820  -75.6660   -8.5830 O         1 <0>         0.0000
  18486 WAT       -35.6820  -75.6660   -8.3330 O         1 <0>         0.0000
  18487 WAT       -35.6820  -75.6660   -8.0830 O         1 <0>         0.0000
  18488 WAT       -35.6820  -75.6660   -7.8330 O         1 <0>         0.0000
  18489 WAT       -35.6820  -75.6660   -7.5830 O         1 <0>         0.0000
  18490 WAT       -35.6820  -75.6660   -7.3330 O         1 <0>         0.0000
  18491 WAT       -35.6820  -75.6660   -7.0830 O         1 <0>         0.0000
  18492 WAT       -35.6820  -75.6660   -6.8330 O         1 <0>         0.0000
  18493 WAT       -35.6820  -75.6660   -6.5830 O         1 <0>         0.0000
  18494 WAT       -35.6820  -75.6660   -6.3330 O         1 <0>         0.0000
  18495 WAT       -35.6820  -75.6660   -6.0830 O         1 <0>         0.0000
  18496 WAT       -35.6820  -75.6660   -5.8330 O         1 <0>         0.0000
  18497 WAT       -35.6820  -75.6660   -5.5830 O         1 <0>         0.0000
  18498 WAT       -35.6820  -75.6660   -5.3330 O         1 <0>         0.0000
  18499 WAT       -35.6820  -75.6660   -5.0830 O         1 <0>         0.0000
  18500 WAT       -35.6820  -75.6660   -4.8330 O         1 <0>         0.0000
  18501 WAT       -35.6820  -75.6660   -4.5830 O         1 <0>         0.0001
  18502 WAT       -35.6820  -75.6660   -4.3330 O         1 <0>         0.0004
  18503 WAT       -35.6820  -75.6660   -4.0830 O         1 <0>         0.0010
  18504 WAT       -35.6820  -75.6660   -3.8330 O         1 <0>         0.0019
  18505 WAT       -35.6820  -75.6660   -3.5830 O         1 <0>         0.0025
  18506 WAT       -35.6820  -75.6660   -3.3330 O         1 <0>         0.0022
  18507 WAT       -35.6820  -75.6660   -3.0830 O         1 <0>         0.0012
  18508 WAT       -35.6820  -75.6660   -2.8330 O         1 <0>         0.0004
  18509 WAT       -35.6820  -75.6660   -2.5830 O         1 <0>         0.0001
  18510 WAT       -35.6820  -75.6660   -2.3330 O         1 <0>         0.0000
  18511 WAT       -35.6820  -75.6660   -2.0830 O         1 <0>         0.0000
  18512 WAT       -35.6820  -75.6660   -1.8330 O         1 <0>         0.0000
  18513 WAT       -35.6820  -75.6660   -1.5830 O         1 <0>         0.0000
  18514 WAT       -35.6820  -75.6660   -1.3330 O         1 <0>         0.0000
  18515 WAT       -35.6820  -75.6660   -1.0830 O         1 <0>         0.0000
  18516 WAT       -35.6820  -75.6660   -0.8330 O         1 <0>         0.0000
  18517 WAT       -35.6820  -75.6660   -0.5830 O         1 <0>         0.0000
  18518 WAT       -35.6820  -75.6660   -0.3330 O         1 <0>         0.0000
  18519 WAT       -35.6820  -75.6660   -0.0830 O         1 <0>         0.0000
  18520 WAT       -35.6820  -75.4160   -9.8330 O         1 <0>         0.0000
  18521 WAT       -35.6820  -75.4160   -9.5830 O         1 <0>         0.0000
  18522 WAT       -35.6820  -75.4160   -9.3330 O         1 <0>         0.0000
  18523 WAT       -35.6820  -75.4160   -9.0830 O         1 <0>         0.0000
  18524 WAT       -35.6820  -75.4160   -8.8330 O         1 <0>         0.0000
  18525 WAT       -35.6820  -75.4160   -8.5830 O         1 <0>         0.0000
  18526 WAT       -35.6820  -75.4160   -8.3330 O         1 <0>         0.0000
  18527 WAT       -35.6820  -75.4160   -8.0830 O         1 <0>         0.0000
  18528 WAT       -35.6820  -75.4160   -7.8330 O         1 <0>         0.0000
  18529 WAT       -35.6820  -75.4160   -7.5830 O         1 <0>         0.0000
  18530 WAT       -35.6820  -75.4160   -7.3330 O         1 <0>         0.0000
  18531 WAT       -35.6820  -75.4160   -7.0830 O         1 <0>         0.0000
  18532 WAT       -35.6820  -75.4160   -6.8330 O         1 <0>         0.0000
  18533 WAT       -35.6820  -75.4160   -6.5830 O         1 <0>         0.0000
  18534 WAT       -35.6820  -75.4160   -6.3330 O         1 <0>         0.0001
  18535 WAT       -35.6820  -75.4160   -6.0830 O         1 <0>         0.0001
  18536 WAT       -35.6820  -75.4160   -5.8330 O         1 <0>         0.0002
  18537 WAT       -35.6820  -75.4160   -5.5830 O         1 <0>         0.0003
  18538 WAT       -35.6820  -75.4160   -5.3330 O         1 <0>         0.0003
  18539 WAT       -35.6820  -75.4160   -5.0830 O         1 <0>         0.0003
  18540 WAT       -35.6820  -75.4160   -4.8330 O         1 <0>         0.0003
  18541 WAT       -35.6820  -75.4160   -4.5830 O         1 <0>         0.0006
  18542 WAT       -35.6820  -75.4160   -4.3330 O         1 <0>         0.0017
  18543 WAT       -35.6820  -75.4160   -4.0830 O         1 <0>         0.0042
  18544 WAT       -35.6820  -75.4160   -3.8330 O         1 <0>         0.0075
  18545 WAT       -35.6820  -75.4160   -3.5830 O         1 <0>         0.0097
  18546 WAT       -35.6820  -75.4160   -3.3330 O         1 <0>         0.0085
  18547 WAT       -35.6820  -75.4160   -3.0830 O         1 <0>         0.0050
  18548 WAT       -35.6820  -75.4160   -2.8330 O         1 <0>         0.0018
  18549 WAT       -35.6820  -75.4160   -2.5830 O         1 <0>         0.0003
  18550 WAT       -35.6820  -75.4160   -2.3330 O         1 <0>         0.0000
  18551 WAT       -35.6820  -75.4160   -2.0830 O         1 <0>         0.0000
  18552 WAT       -35.6820  -75.4160   -1.8330 O         1 <0>         0.0000
  18553 WAT       -35.6820  -75.4160   -1.5830 O         1 <0>         0.0000
  18554 WAT       -35.6820  -75.4160   -1.3330 O         1 <0>         0.0000
  18555 WAT       -35.6820  -75.4160   -1.0830 O         1 <0>         0.0000
  18556 WAT       -35.6820  -75.4160   -0.8330 O         1 <0>         0.0000
  18557 WAT       -35.6820  -75.4160   -0.5830 O         1 <0>         0.0000
  18558 WAT       -35.6820  -75.4160   -0.3330 O         1 <0>         0.0000
  18559 WAT       -35.6820  -75.4160   -0.0830 O         1 <0>         0.0000
  18560 WAT       -35.6820  -75.1660   -9.8330 O         1 <0>         0.0000
  18561 WAT       -35.6820  -75.1660   -9.5830 O         1 <0>         0.0000
  18562 WAT       -35.6820  -75.1660   -9.3330 O         1 <0>         0.0000
  18563 WAT       -35.6820  -75.1660   -9.0830 O         1 <0>         0.0000
  18564 WAT       -35.6820  -75.1660   -8.8330 O         1 <0>         0.0000
  18565 WAT       -35.6820  -75.1660   -8.5830 O         1 <0>         0.0000
  18566 WAT       -35.6820  -75.1660   -8.3330 O         1 <0>         0.0000
  18567 WAT       -35.6820  -75.1660   -8.0830 O         1 <0>         0.0000
  18568 WAT       -35.6820  -75.1660   -7.8330 O         1 <0>         0.0000
  18569 WAT       -35.6820  -75.1660   -7.5830 O         1 <0>         0.0000
  18570 WAT       -35.6820  -75.1660   -7.3330 O         1 <0>         0.0000
  18571 WAT       -35.6820  -75.1660   -7.0830 O         1 <0>         0.0000
  18572 WAT       -35.6820  -75.1660   -6.8330 O         1 <0>         0.0001
  18573 WAT       -35.6820  -75.1660   -6.5830 O         1 <0>         0.0004
  18574 WAT       -35.6820  -75.1660   -6.3330 O         1 <0>         0.0009
  18575 WAT       -35.6820  -75.1660   -6.0830 O         1 <0>         0.0015
  18576 WAT       -35.6820  -75.1660   -5.8330 O         1 <0>         0.0018
  18577 WAT       -35.6820  -75.1660   -5.5830 O         1 <0>         0.0019
  18578 WAT       -35.6820  -75.1660   -5.3330 O         1 <0>         0.0018
  18579 WAT       -35.6820  -75.1660   -5.0830 O         1 <0>         0.0017
  18580 WAT       -35.6820  -75.1660   -4.8330 O         1 <0>         0.0016
  18581 WAT       -35.6820  -75.1660   -4.5830 O         1 <0>         0.0025
  18582 WAT       -35.6820  -75.1660   -4.3330 O         1 <0>         0.0056
  18583 WAT       -35.6820  -75.1660   -4.0830 O         1 <0>         0.0124
  18584 WAT       -35.6820  -75.1660   -3.8330 O         1 <0>         0.0218
  18585 WAT       -35.6820  -75.1660   -3.5830 O         1 <0>         0.0283
  18586 WAT       -35.6820  -75.1660   -3.3330 O         1 <0>         0.0258
  18587 WAT       -35.6820  -75.1660   -3.0830 O         1 <0>         0.0162
  18588 WAT       -35.6820  -75.1660   -2.8330 O         1 <0>         0.0067
  18589 WAT       -35.6820  -75.1660   -2.5830 O         1 <0>         0.0016
  18590 WAT       -35.6820  -75.1660   -2.3330 O         1 <0>         0.0002
  18591 WAT       -35.6820  -75.1660   -2.0830 O         1 <0>         0.0000
  18592 WAT       -35.6820  -75.1660   -1.8330 O         1 <0>         0.0000
  18593 WAT       -35.6820  -75.1660   -1.5830 O         1 <0>         0.0000
  18594 WAT       -35.6820  -75.1660   -1.3330 O         1 <0>         0.0000
  18595 WAT       -35.6820  -75.1660   -1.0830 O         1 <0>         0.0000
  18596 WAT       -35.6820  -75.1660   -0.8330 O         1 <0>         0.0000
  18597 WAT       -35.6820  -75.1660   -0.5830 O         1 <0>         0.0000
  18598 WAT       -35.6820  -75.1660   -0.3330 O         1 <0>         0.0000
  18599 WAT       -35.6820  -75.1660   -0.0830 O         1 <0>         0.0000
  18600 WAT       -35.6820  -74.9160   -9.8330 O         1 <0>         0.0000
  18601 WAT       -35.6820  -74.9160   -9.5830 O         1 <0>         0.0000
  18602 WAT       -35.6820  -74.9160   -9.3330 O         1 <0>         0.0000
  18603 WAT       -35.6820  -74.9160   -9.0830 O         1 <0>         0.0000
  18604 WAT       -35.6820  -74.9160   -8.8330 O         1 <0>         0.0000
  18605 WAT       -35.6820  -74.9160   -8.5830 O         1 <0>         0.0000
  18606 WAT       -35.6820  -74.9160   -8.3330 O         1 <0>         0.0000
  18607 WAT       -35.6820  -74.9160   -8.0830 O         1 <0>         0.0000
  18608 WAT       -35.6820  -74.9160   -7.8330 O         1 <0>         0.0000
  18609 WAT       -35.6820  -74.9160   -7.5830 O         1 <0>         0.0000
  18610 WAT       -35.6820  -74.9160   -7.3330 O         1 <0>         0.0000
  18611 WAT       -35.6820  -74.9160   -7.0830 O         1 <0>         0.0001
  18612 WAT       -35.6820  -74.9160   -6.8330 O         1 <0>         0.0006
  18613 WAT       -35.6820  -74.9160   -6.5830 O         1 <0>         0.0022
  18614 WAT       -35.6820  -74.9160   -6.3330 O         1 <0>         0.0049
  18615 WAT       -35.6820  -74.9160   -6.0830 O         1 <0>         0.0075
  18616 WAT       -35.6820  -74.9160   -5.8330 O         1 <0>         0.0089
  18617 WAT       -35.6820  -74.9160   -5.5830 O         1 <0>         0.0089
  18618 WAT       -35.6820  -74.9160   -5.3330 O         1 <0>         0.0081
  18619 WAT       -35.6820  -74.9160   -5.0830 O         1 <0>         0.0071
  18620 WAT       -35.6820  -74.9160   -4.8330 O         1 <0>         0.0065
  18621 WAT       -35.6820  -74.9160   -4.5830 O         1 <0>         0.0078
  18622 WAT       -35.6820  -74.9160   -4.3330 O         1 <0>         0.0136
  18623 WAT       -35.6820  -74.9160   -4.0830 O         1 <0>         0.0275
  18624 WAT       -35.6820  -74.9160   -3.8330 O         1 <0>         0.0481
  18625 WAT       -35.6820  -74.9160   -3.5830 O         1 <0>         0.0640
  18626 WAT       -35.6820  -74.9160   -3.3330 O         1 <0>         0.0609
  18627 WAT       -35.6820  -74.9160   -3.0830 O         1 <0>         0.0402
  18628 WAT       -35.6820  -74.9160   -2.8330 O         1 <0>         0.0181
  18629 WAT       -35.6820  -74.9160   -2.5830 O         1 <0>         0.0051
  18630 WAT       -35.6820  -74.9160   -2.3330 O         1 <0>         0.0007
  18631 WAT       -35.6820  -74.9160   -2.0830 O         1 <0>         0.0000
  18632 WAT       -35.6820  -74.9160   -1.8330 O         1 <0>         0.0000
  18633 WAT       -35.6820  -74.9160   -1.5830 O         1 <0>         0.0000
  18634 WAT       -35.6820  -74.9160   -1.3330 O         1 <0>         0.0000
  18635 WAT       -35.6820  -74.9160   -1.0830 O         1 <0>         0.0000
  18636 WAT       -35.6820  -74.9160   -0.8330 O         1 <0>         0.0000
  18637 WAT       -35.6820  -74.9160   -0.5830 O         1 <0>         0.0000
  18638 WAT       -35.6820  -74.9160   -0.3330 O         1 <0>         0.0000
  18639 WAT       -35.6820  -74.9160   -0.0830 O         1 <0>         0.0000
  18640 WAT       -35.6820  -74.6660   -9.8330 O         1 <0>         0.0000
  18641 WAT       -35.6820  -74.6660   -9.5830 O         1 <0>         0.0000
  18642 WAT       -35.6820  -74.6660   -9.3330 O         1 <0>         0.0000
  18643 WAT       -35.6820  -74.6660   -9.0830 O         1 <0>         0.0000
  18644 WAT       -35.6820  -74.6660   -8.8330 O         1 <0>         0.0000
  18645 WAT       -35.6820  -74.6660   -8.5830 O         1 <0>         0.0000
  18646 WAT       -35.6820  -74.6660   -8.3330 O         1 <0>         0.0000
  18647 WAT       -35.6820  -74.6660   -8.0830 O         1 <0>         0.0000
  18648 WAT       -35.6820  -74.6660   -7.8330 O         1 <0>         0.0000
  18649 WAT       -35.6820  -74.6660   -7.5830 O         1 <0>         0.0000
  18650 WAT       -35.6820  -74.6660   -7.3330 O         1 <0>         0.0000
  18651 WAT       -35.6820  -74.6660   -7.0830 O         1 <0>         0.0005
  18652 WAT       -35.6820  -74.6660   -6.8330 O         1 <0>         0.0024
  18653 WAT       -35.6820  -74.6660   -6.5830 O         1 <0>         0.0075
  18654 WAT       -35.6820  -74.6660   -6.3330 O         1 <0>         0.0161
  18655 WAT       -35.6820  -74.6660   -6.0830 O         1 <0>         0.0245
  18656 WAT       -35.6820  -74.6660   -5.8330 O         1 <0>         0.0286
  18657 WAT       -35.6820  -74.6660   -5.5830 O         1 <0>         0.0277
  18658 WAT       -35.6820  -74.6660   -5.3330 O         1 <0>         0.0247
  18659 WAT       -35.6820  -74.6660   -5.0830 O         1 <0>         0.0216
  18660 WAT       -35.6820  -74.6660   -4.8330 O         1 <0>         0.0194
  18661 WAT       -35.6820  -74.6660   -4.5830 O         1 <0>         0.0200
  18662 WAT       -35.6820  -74.6660   -4.3330 O         1 <0>         0.0280
  18663 WAT       -35.6820  -74.6660   -4.0830 O         1 <0>         0.0493
  18664 WAT       -35.6820  -74.6660   -3.8330 O         1 <0>         0.0839
  18665 WAT       -35.6820  -74.6660   -3.5830 O         1 <0>         0.1139
  18666 WAT       -35.6820  -74.6660   -3.3330 O         1 <0>         0.1125
  18667 WAT       -35.6820  -74.6660   -3.0830 O         1 <0>         0.0780
  18668 WAT       -35.6820  -74.6660   -2.8330 O         1 <0>         0.0372
  18669 WAT       -35.6820  -74.6660   -2.5830 O         1 <0>         0.0117
  18670 WAT       -35.6820  -74.6660   -2.3330 O         1 <0>         0.0021
  18671 WAT       -35.6820  -74.6660   -2.0830 O         1 <0>         0.0002
  18672 WAT       -35.6820  -74.6660   -1.8330 O         1 <0>         0.0000
  18673 WAT       -35.6820  -74.6660   -1.5830 O         1 <0>         0.0000
  18674 WAT       -35.6820  -74.6660   -1.3330 O         1 <0>         0.0000
  18675 WAT       -35.6820  -74.6660   -1.0830 O         1 <0>         0.0000
  18676 WAT       -35.6820  -74.6660   -0.8330 O         1 <0>         0.0000
  18677 WAT       -35.6820  -74.6660   -0.5830 O         1 <0>         0.0000
  18678 WAT       -35.6820  -74.6660   -0.3330 O         1 <0>         0.0000
  18679 WAT       -35.6820  -74.6660   -0.0830 O         1 <0>         0.0000
  18680 WAT       -35.6820  -74.4160   -9.8330 O         1 <0>         0.0000
  18681 WAT       -35.6820  -74.4160   -9.5830 O         1 <0>         0.0000
  18682 WAT       -35.6820  -74.4160   -9.3330 O         1 <0>         0.0000
  18683 WAT       -35.6820  -74.4160   -9.0830 O         1 <0>         0.0000
  18684 WAT       -35.6820  -74.4160   -8.8330 O         1 <0>         0.0000
  18685 WAT       -35.6820  -74.4160   -8.5830 O         1 <0>         0.0000
  18686 WAT       -35.6820  -74.4160   -8.3330 O         1 <0>         0.0000
  18687 WAT       -35.6820  -74.4160   -8.0830 O         1 <0>         0.0000
  18688 WAT       -35.6820  -74.4160   -7.8330 O         1 <0>         0.0000
  18689 WAT       -35.6820  -74.4160   -7.5830 O         1 <0>         0.0000
  18690 WAT       -35.6820  -74.4160   -7.3330 O         1 <0>         0.0002
  18691 WAT       -35.6820  -74.4160   -7.0830 O         1 <0>         0.0014
  18692 WAT       -35.6820  -74.4160   -6.8330 O         1 <0>         0.0061
  18693 WAT       -35.6820  -74.4160   -6.5830 O         1 <0>         0.0179
  18694 WAT       -35.6820  -74.4160   -6.3330 O         1 <0>         0.0371
  18695 WAT       -35.6820  -74.4160   -6.0830 O         1 <0>         0.0561
  18696 WAT       -35.6820  -74.4160   -5.8330 O         1 <0>         0.0652
  18697 WAT       -35.6820  -74.4160   -5.5830 O         1 <0>         0.0629
  18698 WAT       -35.6820  -74.4160   -5.3330 O         1 <0>         0.0558
  18699 WAT       -35.6820  -74.4160   -5.0830 O         1 <0>         0.0496
  18700 WAT       -35.6820  -74.4160   -4.8330 O         1 <0>         0.0450
  18701 WAT       -35.6820  -74.4160   -4.5830 O         1 <0>         0.0435
  18702 WAT       -35.6820  -74.4160   -4.3330 O         1 <0>         0.0508
  18703 WAT       -35.6820  -74.4160   -4.0830 O         1 <0>         0.0754
  18704 WAT       -35.6820  -74.4160   -3.8330 O         1 <0>         0.1196
  18705 WAT       -35.6820  -74.4160   -3.5830 O         1 <0>         0.1621
  18706 WAT       -35.6820  -74.4160   -3.3330 O         1 <0>         0.1642
  18707 WAT       -35.6820  -74.4160   -3.0830 O         1 <0>         0.1178
  18708 WAT       -35.6820  -74.4160   -2.8330 O         1 <0>         0.0586
  18709 WAT       -35.6820  -74.4160   -2.5830 O         1 <0>         0.0196
  18710 WAT       -35.6820  -74.4160   -2.3330 O         1 <0>         0.0040
  18711 WAT       -35.6820  -74.4160   -2.0830 O         1 <0>         0.0004
  18712 WAT       -35.6820  -74.4160   -1.8330 O         1 <0>         0.0000
  18713 WAT       -35.6820  -74.4160   -1.5830 O         1 <0>         0.0000
  18714 WAT       -35.6820  -74.4160   -1.3330 O         1 <0>         0.0000
  18715 WAT       -35.6820  -74.4160   -1.0830 O         1 <0>         0.0000
  18716 WAT       -35.6820  -74.4160   -0.8330 O         1 <0>         0.0000
  18717 WAT       -35.6820  -74.4160   -0.5830 O         1 <0>         0.0000
  18718 WAT       -35.6820  -74.4160   -0.3330 O         1 <0>         0.0000
  18719 WAT       -35.6820  -74.4160   -0.0830 O         1 <0>         0.0000
  18720 WAT       -35.6820  -74.1660   -9.8330 O         1 <0>         0.0000
  18721 WAT       -35.6820  -74.1660   -9.5830 O         1 <0>         0.0000
  18722 WAT       -35.6820  -74.1660   -9.3330 O         1 <0>         0.0000
  18723 WAT       -35.6820  -74.1660   -9.0830 O         1 <0>         0.0000
  18724 WAT       -35.6820  -74.1660   -8.8330 O         1 <0>         0.0000
  18725 WAT       -35.6820  -74.1660   -8.5830 O         1 <0>         0.0000
  18726 WAT       -35.6820  -74.1660   -8.3330 O         1 <0>         0.0000
  18727 WAT       -35.6820  -74.1660   -8.0830 O         1 <0>         0.0000
  18728 WAT       -35.6820  -74.1660   -7.8330 O         1 <0>         0.0000
  18729 WAT       -35.6820  -74.1660   -7.5830 O         1 <0>         0.0002
  18730 WAT       -35.6820  -74.1660   -7.3330 O         1 <0>         0.0009
  18731 WAT       -35.6820  -74.1660   -7.0830 O         1 <0>         0.0038
  18732 WAT       -35.6820  -74.1660   -6.8330 O         1 <0>         0.0128
  18733 WAT       -35.6820  -74.1660   -6.5830 O         1 <0>         0.0330
  18734 WAT       -35.6820  -74.1660   -6.3330 O         1 <0>         0.0646
  18735 WAT       -35.6820  -74.1660   -6.0830 O         1 <0>         0.0959
  18736 WAT       -35.6820  -74.1660   -5.8330 O         1 <0>         0.1106
  18737 WAT       -35.6820  -74.1660   -5.5830 O         1 <0>         0.1062
  18738 WAT       -35.6820  -74.1660   -5.3330 O         1 <0>         0.0951
  18739 WAT       -35.6820  -74.1660   -5.0830 O         1 <0>         0.0874
  18740 WAT       -35.6820  -74.1660   -4.8330 O         1 <0>         0.0825
  18741 WAT       -35.6820  -74.1660   -4.5830 O         1 <0>         0.0790
  18742 WAT       -35.6820  -74.1660   -4.3330 O         1 <0>         0.0813
  18743 WAT       -35.6820  -74.1660   -4.0830 O         1 <0>         0.0998
  18744 WAT       -35.6820  -74.1660   -3.8330 O         1 <0>         0.1404
  18745 WAT       -35.6820  -74.1660   -3.5830 O         1 <0>         0.1834
  18746 WAT       -35.6820  -74.1660   -3.3330 O         1 <0>         0.1869
  18747 WAT       -35.6820  -74.1660   -3.0830 O         1 <0>         0.1372
  18748 WAT       -35.6820  -74.1660   -2.8330 O         1 <0>         0.0703
  18749 WAT       -35.6820  -74.1660   -2.5830 O         1 <0>         0.0245
  18750 WAT       -35.6820  -74.1660   -2.3330 O         1 <0>         0.0054
  18751 WAT       -35.6820  -74.1660   -2.0830 O         1 <0>         0.0006
  18752 WAT       -35.6820  -74.1660   -1.8330 O         1 <0>         0.0000
  18753 WAT       -35.6820  -74.1660   -1.5830 O         1 <0>         0.0000
  18754 WAT       -35.6820  -74.1660   -1.3330 O         1 <0>         0.0000
  18755 WAT       -35.6820  -74.1660   -1.0830 O         1 <0>         0.0000
  18756 WAT       -35.6820  -74.1660   -0.8330 O         1 <0>         0.0000
  18757 WAT       -35.6820  -74.1660   -0.5830 O         1 <0>         0.0000
  18758 WAT       -35.6820  -74.1660   -0.3330 O         1 <0>         0.0000
  18759 WAT       -35.6820  -74.1660   -0.0830 O         1 <0>         0.0000
  18760 WAT       -35.6820  -73.9160   -9.8330 O         1 <0>         0.0000
  18761 WAT       -35.6820  -73.9160   -9.5830 O         1 <0>         0.0000
  18762 WAT       -35.6820  -73.9160   -9.3330 O         1 <0>         0.0000
  18763 WAT       -35.6820  -73.9160   -9.0830 O         1 <0>         0.0000
  18764 WAT       -35.6820  -73.9160   -8.8330 O         1 <0>         0.0000
  18765 WAT       -35.6820  -73.9160   -8.5830 O         1 <0>         0.0000
  18766 WAT       -35.6820  -73.9160   -8.3330 O         1 <0>         0.0000
  18767 WAT       -35.6820  -73.9160   -8.0830 O         1 <0>         0.0000
  18768 WAT       -35.6820  -73.9160   -7.8330 O         1 <0>         0.0001
  18769 WAT       -35.6820  -73.9160   -7.5830 O         1 <0>         0.0007
  18770 WAT       -35.6820  -73.9160   -7.3330 O         1 <0>         0.0029
  18771 WAT       -35.6820  -73.9160   -7.0830 O         1 <0>         0.0090
  18772 WAT       -35.6820  -73.9160   -6.8330 O         1 <0>         0.0229
  18773 WAT       -35.6820  -73.9160   -6.5830 O         1 <0>         0.0496
  18774 WAT       -35.6820  -73.9160   -6.3330 O         1 <0>         0.0890
  18775 WAT       -35.6820  -73.9160   -6.0830 O         1 <0>         0.1270
  18776 WAT       -35.6820  -73.9160   -5.8330 O         1 <0>         0.1433
  18777 WAT       -35.6820  -73.9160   -5.5830 O         1 <0>         0.1361
  18778 WAT       -35.6820  -73.9160   -5.3330 O         1 <0>         0.1235
  18779 WAT       -35.6820  -73.9160   -5.0830 O         1 <0>         0.1187
  18780 WAT       -35.6820  -73.9160   -4.8330 O         1 <0>         0.1185
  18781 WAT       -35.6820  -73.9160   -4.5830 O         1 <0>         0.1149
  18782 WAT       -35.6820  -73.9160   -4.3330 O         1 <0>         0.1087
  18783 WAT       -35.6820  -73.9160   -4.0830 O         1 <0>         0.1115
  18784 WAT       -35.6820  -73.9160   -3.8330 O         1 <0>         0.1334
  18785 WAT       -35.6820  -73.9160   -3.5830 O         1 <0>         0.1617
  18786 WAT       -35.6820  -73.9160   -3.3330 O         1 <0>         0.1621
  18787 WAT       -35.6820  -73.9160   -3.0830 O         1 <0>         0.1201
  18788 WAT       -35.6820  -73.9160   -2.8330 O         1 <0>         0.0628
  18789 WAT       -35.6820  -73.9160   -2.5830 O         1 <0>         0.0226
  18790 WAT       -35.6820  -73.9160   -2.3330 O         1 <0>         0.0052
  18791 WAT       -35.6820  -73.9160   -2.0830 O         1 <0>         0.0007
  18792 WAT       -35.6820  -73.9160   -1.8330 O         1 <0>         0.0000
  18793 WAT       -35.6820  -73.9160   -1.5830 O         1 <0>         0.0000
  18794 WAT       -35.6820  -73.9160   -1.3330 O         1 <0>         0.0000
  18795 WAT       -35.6820  -73.9160   -1.0830 O         1 <0>         0.0000
  18796 WAT       -35.6820  -73.9160   -0.8330 O         1 <0>         0.0000
  18797 WAT       -35.6820  -73.9160   -0.5830 O         1 <0>         0.0000
  18798 WAT       -35.6820  -73.9160   -0.3330 O         1 <0>         0.0000
  18799 WAT       -35.6820  -73.9160   -0.0830 O         1 <0>         0.0000
  18800 WAT       -35.6820  -73.6660   -9.8330 O         1 <0>         0.0000
  18801 WAT       -35.6820  -73.6660   -9.5830 O         1 <0>         0.0000
  18802 WAT       -35.6820  -73.6660   -9.3330 O         1 <0>         0.0000
  18803 WAT       -35.6820  -73.6660   -9.0830 O         1 <0>         0.0000
  18804 WAT       -35.6820  -73.6660   -8.8330 O         1 <0>         0.0000
  18805 WAT       -35.6820  -73.6660   -8.5830 O         1 <0>         0.0000
  18806 WAT       -35.6820  -73.6660   -8.3330 O         1 <0>         0.0000
  18807 WAT       -35.6820  -73.6660   -8.0830 O         1 <0>         0.0000
  18808 WAT       -35.6820  -73.6660   -7.8330 O         1 <0>         0.0004
  18809 WAT       -35.6820  -73.6660   -7.5830 O         1 <0>         0.0021
  18810 WAT       -35.6820  -73.6660   -7.3330 O         1 <0>         0.0071
  18811 WAT       -35.6820  -73.6660   -7.0830 O         1 <0>         0.0177
  18812 WAT       -35.6820  -73.6660   -6.8330 O         1 <0>         0.0358
  18813 WAT       -35.6820  -73.6660   -6.5830 O         1 <0>         0.0630
  18814 WAT       -35.6820  -73.6660   -6.3330 O         1 <0>         0.0989
  18815 WAT       -35.6820  -73.6660   -6.0830 O         1 <0>         0.1318
  18816 WAT       -35.6820  -73.6660   -5.8330 O         1 <0>         0.1435
  18817 WAT       -35.6820  -73.6660   -5.5830 O         1 <0>         0.1335
  18818 WAT       -35.6820  -73.6660   -5.3330 O         1 <0>         0.1225
  18819 WAT       -35.6820  -73.6660   -5.0830 O         1 <0>         0.1239
  18820 WAT       -35.6820  -73.6660   -4.8330 O         1 <0>         0.1308
  18821 WAT       -35.6820  -73.6660   -4.5830 O         1 <0>         0.1288
  18822 WAT       -35.6820  -73.6660   -4.3330 O         1 <0>         0.1150
  18823 WAT       -35.6820  -73.6660   -4.0830 O         1 <0>         0.1012
  18824 WAT       -35.6820  -73.6660   -3.8330 O         1 <0>         0.1005
  18825 WAT       -35.6820  -73.6660   -3.5830 O         1 <0>         0.1086
  18826 WAT       -35.6820  -73.6660   -3.3330 O         1 <0>         0.1046
  18827 WAT       -35.6820  -73.6660   -3.0830 O         1 <0>         0.0772
  18828 WAT       -35.6820  -73.6660   -2.8330 O         1 <0>         0.0407
  18829 WAT       -35.6820  -73.6660   -2.5830 O         1 <0>         0.0148
  18830 WAT       -35.6820  -73.6660   -2.3330 O         1 <0>         0.0035
  18831 WAT       -35.6820  -73.6660   -2.0830 O         1 <0>         0.0005
  18832 WAT       -35.6820  -73.6660   -1.8330 O         1 <0>         0.0000
  18833 WAT       -35.6820  -73.6660   -1.5830 O         1 <0>         0.0000
  18834 WAT       -35.6820  -73.6660   -1.3330 O         1 <0>         0.0000
  18835 WAT       -35.6820  -73.6660   -1.0830 O         1 <0>         0.0000
  18836 WAT       -35.6820  -73.6660   -0.8330 O         1 <0>         0.0000
  18837 WAT       -35.6820  -73.6660   -0.5830 O         1 <0>         0.0000
  18838 WAT       -35.6820  -73.6660   -0.3330 O         1 <0>         0.0000
  18839 WAT       -35.6820  -73.6660   -0.0830 O         1 <0>         0.0000
  18840 WAT       -35.6820  -73.4160   -9.8330 O         1 <0>         0.0000
  18841 WAT       -35.6820  -73.4160   -9.5830 O         1 <0>         0.0000
  18842 WAT       -35.6820  -73.4160   -9.3330 O         1 <0>         0.0000
  18843 WAT       -35.6820  -73.4160   -9.0830 O         1 <0>         0.0000
  18844 WAT       -35.6820  -73.4160   -8.8330 O         1 <0>         0.0000
  18845 WAT       -35.6820  -73.4160   -8.5830 O         1 <0>         0.0000
  18846 WAT       -35.6820  -73.4160   -8.3330 O         1 <0>         0.0000
  18847 WAT       -35.6820  -73.4160   -8.0830 O         1 <0>         0.0001
  18848 WAT       -35.6820  -73.4160   -7.8330 O         1 <0>         0.0009
  18849 WAT       -35.6820  -73.4160   -7.5830 O         1 <0>         0.0042
  18850 WAT       -35.6820  -73.4160   -7.3330 O         1 <0>         0.0131
  18851 WAT       -35.6820  -73.4160   -7.0830 O         1 <0>         0.0285
  18852 WAT       -35.6820  -73.4160   -6.8330 O         1 <0>         0.0481
  18853 WAT       -35.6820  -73.4160   -6.5830 O         1 <0>         0.0685
  18854 WAT       -35.6820  -73.4160   -6.3330 O         1 <0>         0.0897
  18855 WAT       -35.6820  -73.4160   -6.0830 O         1 <0>         0.1074
  18856 WAT       -35.6820  -73.4160   -5.8330 O         1 <0>         0.1104
  18857 WAT       -35.6820  -73.4160   -5.5830 O         1 <0>         0.0995
  18858 WAT       -35.6820  -73.4160   -5.3330 O         1 <0>         0.0918
  18859 WAT       -35.6820  -73.4160   -5.0830 O         1 <0>         0.0977
  18860 WAT       -35.6820  -73.4160   -4.8330 O         1 <0>         0.1085
  18861 WAT       -35.6820  -73.4160   -4.5830 O         1 <0>         0.1083
  18862 WAT       -35.6820  -73.4160   -4.3330 O         1 <0>         0.0924
  18863 WAT       -35.6820  -73.4160   -4.0830 O         1 <0>         0.0718
  18864 WAT       -35.6820  -73.4160   -3.8330 O         1 <0>         0.0589
  18865 WAT       -35.6820  -73.4160   -3.5830 O         1 <0>         0.0547
  18866 WAT       -35.6820  -73.4160   -3.3330 O         1 <0>         0.0493
  18867 WAT       -35.6820  -73.4160   -3.0830 O         1 <0>         0.0355
  18868 WAT       -35.6820  -73.4160   -2.8330 O         1 <0>         0.0186
  18869 WAT       -35.6820  -73.4160   -2.5830 O         1 <0>         0.0067
  18870 WAT       -35.6820  -73.4160   -2.3330 O         1 <0>         0.0015
  18871 WAT       -35.6820  -73.4160   -2.0830 O         1 <0>         0.0002
  18872 WAT       -35.6820  -73.4160   -1.8330 O         1 <0>         0.0000
  18873 WAT       -35.6820  -73.4160   -1.5830 O         1 <0>         0.0000
  18874 WAT       -35.6820  -73.4160   -1.3330 O         1 <0>         0.0000
  18875 WAT       -35.6820  -73.4160   -1.0830 O         1 <0>         0.0000
  18876 WAT       -35.6820  -73.4160   -0.8330 O         1 <0>         0.0000
  18877 WAT       -35.6820  -73.4160   -0.5830 O         1 <0>         0.0000
  18878 WAT       -35.6820  -73.4160   -0.3330 O         1 <0>         0.0000
  18879 WAT       -35.6820  -73.4160   -0.0830 O         1 <0>         0.0000
  18880 WAT       -35.6820  -73.1660   -9.8330 O         1 <0>         0.0000
  18881 WAT       -35.6820  -73.1660   -9.5830 O         1 <0>         0.0000
  18882 WAT       -35.6820  -73.1660   -9.3330 O         1 <0>         0.0000
  18883 WAT       -35.6820  -73.1660   -9.0830 O         1 <0>         0.0000
  18884 WAT       -35.6820  -73.1660   -8.8330 O         1 <0>         0.0000
  18885 WAT       -35.6820  -73.1660   -8.5830 O         1 <0>         0.0000
  18886 WAT       -35.6820  -73.1660   -8.3330 O         1 <0>         0.0000
  18887 WAT       -35.6820  -73.1660   -8.0830 O         1 <0>         0.0002
  18888 WAT       -35.6820  -73.1660   -7.8330 O         1 <0>         0.0015
  18889 WAT       -35.6820  -73.1660   -7.5830 O         1 <0>         0.0068
  18890 WAT       -35.6820  -73.1660   -7.3330 O         1 <0>         0.0194
  18891 WAT       -35.6820  -73.1660   -7.0830 O         1 <0>         0.0379
  18892 WAT       -35.6820  -73.1660   -6.8330 O         1 <0>         0.0554
  18893 WAT       -35.6820  -73.1660   -6.5830 O         1 <0>         0.0653
  18894 WAT       -35.6820  -73.1660   -6.3330 O         1 <0>         0.0689
  18895 WAT       -35.6820  -73.1660   -6.0830 O         1 <0>         0.0696
  18896 WAT       -35.6820  -73.1660   -5.8330 O         1 <0>         0.0649
  18897 WAT       -35.6820  -73.1660   -5.5830 O         1 <0>         0.0554
  18898 WAT       -35.6820  -73.1660   -5.3330 O         1 <0>         0.0509
  18899 WAT       -35.6820  -73.1660   -5.0830 O         1 <0>         0.0568
  18900 WAT       -35.6820  -73.1660   -4.8330 O         1 <0>         0.0660
  18901 WAT       -35.6820  -73.1660   -4.5830 O         1 <0>         0.0666
  18902 WAT       -35.6820  -73.1660   -4.3330 O         1 <0>         0.0548
  18903 WAT       -35.6820  -73.1660   -4.0830 O         1 <0>         0.0384
  18904 WAT       -35.6820  -73.1660   -3.8330 O         1 <0>         0.0262
  18905 WAT       -35.6820  -73.1660   -3.5830 O         1 <0>         0.0202
  18906 WAT       -35.6820  -73.1660   -3.3330 O         1 <0>         0.0165
  18907 WAT       -35.6820  -73.1660   -3.0830 O         1 <0>         0.0113
  18908 WAT       -35.6820  -73.1660   -2.8330 O         1 <0>         0.0057
  18909 WAT       -35.6820  -73.1660   -2.5830 O         1 <0>         0.0020
  18910 WAT       -35.6820  -73.1660   -2.3330 O         1 <0>         0.0004
  18911 WAT       -35.6820  -73.1660   -2.0830 O         1 <0>         0.0001
  18912 WAT       -35.6820  -73.1660   -1.8330 O         1 <0>         0.0000
  18913 WAT       -35.6820  -73.1660   -1.5830 O         1 <0>         0.0000
  18914 WAT       -35.6820  -73.1660   -1.3330 O         1 <0>         0.0000
  18915 WAT       -35.6820  -73.1660   -1.0830 O         1 <0>         0.0000
  18916 WAT       -35.6820  -73.1660   -0.8330 O         1 <0>         0.0000
  18917 WAT       -35.6820  -73.1660   -0.5830 O         1 <0>         0.0000
  18918 WAT       -35.6820  -73.1660   -0.3330 O         1 <0>         0.0000
  18919 WAT       -35.6820  -73.1660   -0.0830 O         1 <0>         0.0000
  18920 WAT       -35.6820  -72.9160   -9.8330 O         1 <0>         0.0000
  18921 WAT       -35.6820  -72.9160   -9.5830 O         1 <0>         0.0000
  18922 WAT       -35.6820  -72.9160   -9.3330 O         1 <0>         0.0000
  18923 WAT       -35.6820  -72.9160   -9.0830 O         1 <0>         0.0000
  18924 WAT       -35.6820  -72.9160   -8.8330 O         1 <0>         0.0000
  18925 WAT       -35.6820  -72.9160   -8.5830 O         1 <0>         0.0000
  18926 WAT       -35.6820  -72.9160   -8.3330 O         1 <0>         0.0000
  18927 WAT       -35.6820  -72.9160   -8.0830 O         1 <0>         0.0002
  18928 WAT       -35.6820  -72.9160   -7.8330 O         1 <0>         0.0023
  18929 WAT       -35.6820  -72.9160   -7.5830 O         1 <0>         0.0100
  18930 WAT       -35.6820  -72.9160   -7.3330 O         1 <0>         0.0256
  18931 WAT       -35.6820  -72.9160   -7.0830 O         1 <0>         0.0444
  18932 WAT       -35.6820  -72.9160   -6.8330 O         1 <0>         0.0565
  18933 WAT       -35.6820  -72.9160   -6.5830 O         1 <0>         0.0561
  18934 WAT       -35.6820  -72.9160   -6.3330 O         1 <0>         0.0474
  18935 WAT       -35.6820  -72.9160   -6.0830 O         1 <0>         0.0379
  18936 WAT       -35.6820  -72.9160   -5.8330 O         1 <0>         0.0296
  18937 WAT       -35.6820  -72.9160   -5.5830 O         1 <0>         0.0227
  18938 WAT       -35.6820  -72.9160   -5.3330 O         1 <0>         0.0202
  18939 WAT       -35.6820  -72.9160   -5.0830 O         1 <0>         0.0234
  18940 WAT       -35.6820  -72.9160   -4.8330 O         1 <0>         0.0285
  18941 WAT       -35.6820  -72.9160   -4.5830 O         1 <0>         0.0291
  18942 WAT       -35.6820  -72.9160   -4.3330 O         1 <0>         0.0232
  18943 WAT       -35.6820  -72.9160   -4.0830 O         1 <0>         0.0148
  18944 WAT       -35.6820  -72.9160   -3.8330 O         1 <0>         0.0084
  18945 WAT       -35.6820  -72.9160   -3.5830 O         1 <0>         0.0052
  18946 WAT       -35.6820  -72.9160   -3.3330 O         1 <0>         0.0036
  18947 WAT       -35.6820  -72.9160   -3.0830 O         1 <0>         0.0023
  18948 WAT       -35.6820  -72.9160   -2.8330 O         1 <0>         0.0011
  18949 WAT       -35.6820  -72.9160   -2.5830 O         1 <0>         0.0003
  18950 WAT       -35.6820  -72.9160   -2.3330 O         1 <0>         0.0001
  18951 WAT       -35.6820  -72.9160   -2.0830 O         1 <0>         0.0000
  18952 WAT       -35.6820  -72.9160   -1.8330 O         1 <0>         0.0000
  18953 WAT       -35.6820  -72.9160   -1.5830 O         1 <0>         0.0000
  18954 WAT       -35.6820  -72.9160   -1.3330 O         1 <0>         0.0000
  18955 WAT       -35.6820  -72.9160   -1.0830 O         1 <0>         0.0000
  18956 WAT       -35.6820  -72.9160   -0.8330 O         1 <0>         0.0000
  18957 WAT       -35.6820  -72.9160   -0.5830 O         1 <0>         0.0000
  18958 WAT       -35.6820  -72.9160   -0.3330 O         1 <0>         0.0000
  18959 WAT       -35.6820  -72.9160   -0.0830 O         1 <0>         0.0000
  18960 WAT       -35.6820  -72.6660   -9.8330 O         1 <0>         0.0000
  18961 WAT       -35.6820  -72.6660   -9.5830 O         1 <0>         0.0000
  18962 WAT       -35.6820  -72.6660   -9.3330 O         1 <0>         0.0000
  18963 WAT       -35.6820  -72.6660   -9.0830 O         1 <0>         0.0000
  18964 WAT       -35.6820  -72.6660   -8.8330 O         1 <0>         0.0000
  18965 WAT       -35.6820  -72.6660   -8.5830 O         1 <0>         0.0000
  18966 WAT       -35.6820  -72.6660   -8.3330 O         1 <0>         0.0000
  18967 WAT       -35.6820  -72.6660   -8.0830 O         1 <0>         0.0003
  18968 WAT       -35.6820  -72.6660   -7.8330 O         1 <0>         0.0034
  18969 WAT       -35.6820  -72.6660   -7.5830 O         1 <0>         0.0141
  18970 WAT       -35.6820  -72.6660   -7.3330 O         1 <0>         0.0322
  18971 WAT       -35.6820  -72.6660   -7.0830 O         1 <0>         0.0488
  18972 WAT       -35.6820  -72.6660   -6.8330 O         1 <0>         0.0535
  18973 WAT       -35.6820  -72.6660   -6.5830 O         1 <0>         0.0449
  18974 WAT       -35.6820  -72.6660   -6.3330 O         1 <0>         0.0308
  18975 WAT       -35.6820  -72.6660   -6.0830 O         1 <0>         0.0189
  18976 WAT       -35.6820  -72.6660   -5.8330 O         1 <0>         0.0111
  18977 WAT       -35.6820  -72.6660   -5.5830 O         1 <0>         0.0068
  18978 WAT       -35.6820  -72.6660   -5.3330 O         1 <0>         0.0054
  18979 WAT       -35.6820  -72.6660   -5.0830 O         1 <0>         0.0065
  18980 WAT       -35.6820  -72.6660   -4.8330 O         1 <0>         0.0083
  18981 WAT       -35.6820  -72.6660   -4.5830 O         1 <0>         0.0086
  18982 WAT       -35.6820  -72.6660   -4.3330 O         1 <0>         0.0066
  18983 WAT       -35.6820  -72.6660   -4.0830 O         1 <0>         0.0038
  18984 WAT       -35.6820  -72.6660   -3.8330 O         1 <0>         0.0018
  18985 WAT       -35.6820  -72.6660   -3.5830 O         1 <0>         0.0008
  18986 WAT       -35.6820  -72.6660   -3.3330 O         1 <0>         0.0005
  18987 WAT       -35.6820  -72.6660   -3.0830 O         1 <0>         0.0003
  18988 WAT       -35.6820  -72.6660   -2.8330 O         1 <0>         0.0001
  18989 WAT       -35.6820  -72.6660   -2.5830 O         1 <0>         0.0000
  18990 WAT       -35.6820  -72.6660   -2.3330 O         1 <0>         0.0000
  18991 WAT       -35.6820  -72.6660   -2.0830 O         1 <0>         0.0000
  18992 WAT       -35.6820  -72.6660   -1.8330 O         1 <0>         0.0000
  18993 WAT       -35.6820  -72.6660   -1.5830 O         1 <0>         0.0000
  18994 WAT       -35.6820  -72.6660   -1.3330 O         1 <0>         0.0000
  18995 WAT       -35.6820  -72.6660   -1.0830 O         1 <0>         0.0000
  18996 WAT       -35.6820  -72.6660   -0.8330 O         1 <0>         0.0000
  18997 WAT       -35.6820  -72.6660   -0.5830 O         1 <0>         0.0000
  18998 WAT       -35.6820  -72.6660   -0.3330 O         1 <0>         0.0000
  18999 WAT       -35.6820  -72.6660   -0.0830 O         1 <0>         0.0000
  19000 WAT       -35.6820  -72.4160   -9.8330 O         1 <0>         0.0000
  19001 WAT       -35.6820  -72.4160   -9.5830 O         1 <0>         0.0000
  19002 WAT       -35.6820  -72.4160   -9.3330 O         1 <0>         0.0000
  19003 WAT       -35.6820  -72.4160   -9.0830 O         1 <0>         0.0000
  19004 WAT       -35.6820  -72.4160   -8.8330 O         1 <0>         0.0000
  19005 WAT       -35.6820  -72.4160   -8.5830 O         1 <0>         0.0000
  19006 WAT       -35.6820  -72.4160   -8.3330 O         1 <0>         0.0000
  19007 WAT       -35.6820  -72.4160   -8.0830 O         1 <0>         0.0005
  19008 WAT       -35.6820  -72.4160   -7.8330 O         1 <0>         0.0052
  19009 WAT       -35.6820  -72.4160   -7.5830 O         1 <0>         0.0193
  19010 WAT       -35.6820  -72.4160   -7.3330 O         1 <0>         0.0390
  19011 WAT       -35.6820  -72.4160   -7.0830 O         1 <0>         0.0515
  19012 WAT       -35.6820  -72.4160   -6.8330 O         1 <0>         0.0480
  19013 WAT       -35.6820  -72.4160   -6.5830 O         1 <0>         0.0337
  19014 WAT       -35.6820  -72.4160   -6.3330 O         1 <0>         0.0189
  19015 WAT       -35.6820  -72.4160   -6.0830 O         1 <0>         0.0090
  19016 WAT       -35.6820  -72.4160   -5.8330 O         1 <0>         0.0038
  19017 WAT       -35.6820  -72.4160   -5.5830 O         1 <0>         0.0016
  19018 WAT       -35.6820  -72.4160   -5.3330 O         1 <0>         0.0009
  19019 WAT       -35.6820  -72.4160   -5.0830 O         1 <0>         0.0010
  19020 WAT       -35.6820  -72.4160   -4.8330 O         1 <0>         0.0014
  19021 WAT       -35.6820  -72.4160   -4.5830 O         1 <0>         0.0015
  19022 WAT       -35.6820  -72.4160   -4.3330 O         1 <0>         0.0011
  19023 WAT       -35.6820  -72.4160   -4.0830 O         1 <0>         0.0005
  19024 WAT       -35.6820  -72.4160   -3.8330 O         1 <0>         0.0002
  19025 WAT       -35.6820  -72.4160   -3.5830 O         1 <0>         0.0000
  19026 WAT       -35.6820  -72.4160   -3.3330 O         1 <0>         0.0000
  19027 WAT       -35.6820  -72.4160   -3.0830 O         1 <0>         0.0000
  19028 WAT       -35.6820  -72.4160   -2.8330 O         1 <0>         0.0000
  19029 WAT       -35.6820  -72.4160   -2.5830 O         1 <0>         0.0000
  19030 WAT       -35.6820  -72.4160   -2.3330 O         1 <0>         0.0000
  19031 WAT       -35.6820  -72.4160   -2.0830 O         1 <0>         0.0000
  19032 WAT       -35.6820  -72.4160   -1.8330 O         1 <0>         0.0000
  19033 WAT       -35.6820  -72.4160   -1.5830 O         1 <0>         0.0000
  19034 WAT       -35.6820  -72.4160   -1.3330 O         1 <0>         0.0000
  19035 WAT       -35.6820  -72.4160   -1.0830 O         1 <0>         0.0000
  19036 WAT       -35.6820  -72.4160   -0.8330 O         1 <0>         0.0000
  19037 WAT       -35.6820  -72.4160   -0.5830 O         1 <0>         0.0000
  19038 WAT       -35.6820  -72.4160   -0.3330 O         1 <0>         0.0000
  19039 WAT       -35.6820  -72.4160   -0.0830 O         1 <0>         0.0000
  19040 WAT       -35.6820  -72.1660   -9.8330 O         1 <0>         0.0000
  19041 WAT       -35.6820  -72.1660   -9.5830 O         1 <0>         0.0000
  19042 WAT       -35.6820  -72.1660   -9.3330 O         1 <0>         0.0000
  19043 WAT       -35.6820  -72.1660   -9.0830 O         1 <0>         0.0000
  19044 WAT       -35.6820  -72.1660   -8.8330 O         1 <0>         0.0000
  19045 WAT       -35.6820  -72.1660   -8.5830 O         1 <0>         0.0000
  19046 WAT       -35.6820  -72.1660   -8.3330 O         1 <0>         0.0000
  19047 WAT       -35.6820  -72.1660   -8.0830 O         1 <0>         0.0008
  19048 WAT       -35.6820  -72.1660   -7.8330 O         1 <0>         0.0074
  19049 WAT       -35.6820  -72.1660   -7.5830 O         1 <0>         0.0244
  19050 WAT       -35.6820  -72.1660   -7.3330 O         1 <0>         0.0438
  19051 WAT       -35.6820  -72.1660   -7.0830 O         1 <0>         0.0509
  19052 WAT       -35.6820  -72.1660   -6.8330 O         1 <0>         0.0404
  19053 WAT       -35.6820  -72.1660   -6.5830 O         1 <0>         0.0233
  19054 WAT       -35.6820  -72.1660   -6.3330 O         1 <0>         0.0104
  19055 WAT       -35.6820  -72.1660   -6.0830 O         1 <0>         0.0039
  19056 WAT       -35.6820  -72.1660   -5.8330 O         1 <0>         0.0013
  19057 WAT       -35.6820  -72.1660   -5.5830 O         1 <0>         0.0003
  19058 WAT       -35.6820  -72.1660   -5.3330 O         1 <0>         0.0001
  19059 WAT       -35.6820  -72.1660   -5.0830 O         1 <0>         0.0001
  19060 WAT       -35.6820  -72.1660   -4.8330 O         1 <0>         0.0001
  19061 WAT       -35.6820  -72.1660   -4.5830 O         1 <0>         0.0001
  19062 WAT       -35.6820  -72.1660   -4.3330 O         1 <0>         0.0001
  19063 WAT       -35.6820  -72.1660   -4.0830 O         1 <0>         0.0000
  19064 WAT       -35.6820  -72.1660   -3.8330 O         1 <0>         0.0000
  19065 WAT       -35.6820  -72.1660   -3.5830 O         1 <0>         0.0000
  19066 WAT       -35.6820  -72.1660   -3.3330 O         1 <0>         0.0000
  19067 WAT       -35.6820  -72.1660   -3.0830 O         1 <0>         0.0000
  19068 WAT       -35.6820  -72.1660   -2.8330 O         1 <0>         0.0000
  19069 WAT       -35.6820  -72.1660   -2.5830 O         1 <0>         0.0000
  19070 WAT       -35.6820  -72.1660   -2.3330 O         1 <0>         0.0000
  19071 WAT       -35.6820  -72.1660   -2.0830 O         1 <0>         0.0000
  19072 WAT       -35.6820  -72.1660   -1.8330 O         1 <0>         0.0000
  19073 WAT       -35.6820  -72.1660   -1.5830 O         1 <0>         0.0000
  19074 WAT       -35.6820  -72.1660   -1.3330 O         1 <0>         0.0000
  19075 WAT       -35.6820  -72.1660   -1.0830 O         1 <0>         0.0000
  19076 WAT       -35.6820  -72.1660   -0.8330 O         1 <0>         0.0000
  19077 WAT       -35.6820  -72.1660   -0.5830 O         1 <0>         0.0000
  19078 WAT       -35.6820  -72.1660   -0.3330 O         1 <0>         0.0000
  19079 WAT       -35.6820  -72.1660   -0.0830 O         1 <0>         0.0000
  19080 WAT       -35.6820  -71.9160   -9.8330 O         1 <0>         0.0000
  19081 WAT       -35.6820  -71.9160   -9.5830 O         1 <0>         0.0000
  19082 WAT       -35.6820  -71.9160   -9.3330 O         1 <0>         0.0000
  19083 WAT       -35.6820  -71.9160   -9.0830 O         1 <0>         0.0000
  19084 WAT       -35.6820  -71.9160   -8.8330 O         1 <0>         0.0000
  19085 WAT       -35.6820  -71.9160   -8.5830 O         1 <0>         0.0000
  19086 WAT       -35.6820  -71.9160   -8.3330 O         1 <0>         0.0000
  19087 WAT       -35.6820  -71.9160   -8.0830 O         1 <0>         0.0012
  19088 WAT       -35.6820  -71.9160   -7.8330 O         1 <0>         0.0093
  19089 WAT       -35.6820  -71.9160   -7.5830 O         1 <0>         0.0267
  19090 WAT       -35.6820  -71.9160   -7.3330 O         1 <0>         0.0435
  19091 WAT       -35.6820  -71.9160   -7.0830 O         1 <0>         0.0451
  19092 WAT       -35.6820  -71.9160   -6.8330 O         1 <0>         0.0311
  19093 WAT       -35.6820  -71.9160   -6.5830 O         1 <0>         0.0145
  19094 WAT       -35.6820  -71.9160   -6.3330 O         1 <0>         0.0050
  19095 WAT       -35.6820  -71.9160   -6.0830 O         1 <0>         0.0014
  19096 WAT       -35.6820  -71.9160   -5.8330 O         1 <0>         0.0004
  19097 WAT       -35.6820  -71.9160   -5.5830 O         1 <0>         0.0001
  19098 WAT       -35.6820  -71.9160   -5.3330 O         1 <0>         0.0000
  19099 WAT       -35.6820  -71.9160   -5.0830 O         1 <0>         0.0000
  19100 WAT       -35.6820  -71.9160   -4.8330 O         1 <0>         0.0000
  19101 WAT       -35.6820  -71.9160   -4.5830 O         1 <0>         0.0000
  19102 WAT       -35.6820  -71.9160   -4.3330 O         1 <0>         0.0000
  19103 WAT       -35.6820  -71.9160   -4.0830 O         1 <0>         0.0000
  19104 WAT       -35.6820  -71.9160   -3.8330 O         1 <0>         0.0000
  19105 WAT       -35.6820  -71.9160   -3.5830 O         1 <0>         0.0000
  19106 WAT       -35.6820  -71.9160   -3.3330 O         1 <0>         0.0000
  19107 WAT       -35.6820  -71.9160   -3.0830 O         1 <0>         0.0000
  19108 WAT       -35.6820  -71.9160   -2.8330 O         1 <0>         0.0000
  19109 WAT       -35.6820  -71.9160   -2.5830 O         1 <0>         0.0000
  19110 WAT       -35.6820  -71.9160   -2.3330 O         1 <0>         0.0000
  19111 WAT       -35.6820  -71.9160   -2.0830 O         1 <0>         0.0000
  19112 WAT       -35.6820  -71.9160   -1.8330 O         1 <0>         0.0000
  19113 WAT       -35.6820  -71.9160   -1.5830 O         1 <0>         0.0000
  19114 WAT       -35.6820  -71.9160   -1.3330 O         1 <0>         0.0000
  19115 WAT       -35.6820  -71.9160   -1.0830 O         1 <0>         0.0000
  19116 WAT       -35.6820  -71.9160   -0.8330 O         1 <0>         0.0000
  19117 WAT       -35.6820  -71.9160   -0.5830 O         1 <0>         0.0000
  19118 WAT       -35.6820  -71.9160   -0.3330 O         1 <0>         0.0000
  19119 WAT       -35.6820  -71.9160   -0.0830 O         1 <0>         0.0000
  19120 WAT       -35.6820  -71.6660   -9.8330 O         1 <0>         0.0000
  19121 WAT       -35.6820  -71.6660   -9.5830 O         1 <0>         0.0000
  19122 WAT       -35.6820  -71.6660   -9.3330 O         1 <0>         0.0000
  19123 WAT       -35.6820  -71.6660   -9.0830 O         1 <0>         0.0000
  19124 WAT       -35.6820  -71.6660   -8.8330 O         1 <0>         0.0000
  19125 WAT       -35.6820  -71.6660   -8.5830 O         1 <0>         0.0000
  19126 WAT       -35.6820  -71.6660   -8.3330 O         1 <0>         0.0001
  19127 WAT       -35.6820  -71.6660   -8.0830 O         1 <0>         0.0016
  19128 WAT       -35.6820  -71.6660   -7.8330 O         1 <0>         0.0094
  19129 WAT       -35.6820  -71.6660   -7.5830 O         1 <0>         0.0244
  19130 WAT       -35.6820  -71.6660   -7.3330 O         1 <0>         0.0368
  19131 WAT       -35.6820  -71.6660   -7.0830 O         1 <0>         0.0348
  19132 WAT       -35.6820  -71.6660   -6.8330 O         1 <0>         0.0211
  19133 WAT       -35.6820  -71.6660   -6.5830 O         1 <0>         0.0082
  19134 WAT       -35.6820  -71.6660   -6.3330 O         1 <0>         0.0021
  19135 WAT       -35.6820  -71.6660   -6.0830 O         1 <0>         0.0004
  19136 WAT       -35.6820  -71.6660   -5.8330 O         1 <0>         0.0001
  19137 WAT       -35.6820  -71.6660   -5.5830 O         1 <0>         0.0000
  19138 WAT       -35.6820  -71.6660   -5.3330 O         1 <0>         0.0000
  19139 WAT       -35.6820  -71.6660   -5.0830 O         1 <0>         0.0000
  19140 WAT       -35.6820  -71.6660   -4.8330 O         1 <0>         0.0000
  19141 WAT       -35.6820  -71.6660   -4.5830 O         1 <0>         0.0000
  19142 WAT       -35.6820  -71.6660   -4.3330 O         1 <0>         0.0000
  19143 WAT       -35.6820  -71.6660   -4.0830 O         1 <0>         0.0000
  19144 WAT       -35.6820  -71.6660   -3.8330 O         1 <0>         0.0000
  19145 WAT       -35.6820  -71.6660   -3.5830 O         1 <0>         0.0000
  19146 WAT       -35.6820  -71.6660   -3.3330 O         1 <0>         0.0000
  19147 WAT       -35.6820  -71.6660   -3.0830 O         1 <0>         0.0000
  19148 WAT       -35.6820  -71.6660   -2.8330 O         1 <0>         0.0000
  19149 WAT       -35.6820  -71.6660   -2.5830 O         1 <0>         0.0000
  19150 WAT       -35.6820  -71.6660   -2.3330 O         1 <0>         0.0000
  19151 WAT       -35.6820  -71.6660   -2.0830 O         1 <0>         0.0000
  19152 WAT       -35.6820  -71.6660   -1.8330 O         1 <0>         0.0000
  19153 WAT       -35.6820  -71.6660   -1.5830 O         1 <0>         0.0000
  19154 WAT       -35.6820  -71.6660   -1.3330 O         1 <0>         0.0000
  19155 WAT       -35.6820  -71.6660   -1.0830 O         1 <0>         0.0000
  19156 WAT       -35.6820  -71.6660   -0.8330 O         1 <0>         0.0000
  19157 WAT       -35.6820  -71.6660   -0.5830 O         1 <0>         0.0000
  19158 WAT       -35.6820  -71.6660   -0.3330 O         1 <0>         0.0000
  19159 WAT       -35.6820  -71.6660   -0.0830 O         1 <0>         0.0000
  19160 WAT       -35.6820  -71.4160   -9.8330 O         1 <0>         0.0000
  19161 WAT       -35.6820  -71.4160   -9.5830 O         1 <0>         0.0000
  19162 WAT       -35.6820  -71.4160   -9.3330 O         1 <0>         0.0000
  19163 WAT       -35.6820  -71.4160   -9.0830 O         1 <0>         0.0000
  19164 WAT       -35.6820  -71.4160   -8.8330 O         1 <0>         0.0000
  19165 WAT       -35.6820  -71.4160   -8.5830 O         1 <0>         0.0000
  19166 WAT       -35.6820  -71.4160   -8.3330 O         1 <0>         0.0001
  19167 WAT       -35.6820  -71.4160   -8.0830 O         1 <0>         0.0014
  19168 WAT       -35.6820  -71.4160   -7.8330 O         1 <0>         0.0074
  19169 WAT       -35.6820  -71.4160   -7.5830 O         1 <0>         0.0180
  19170 WAT       -35.6820  -71.4160   -7.3330 O         1 <0>         0.0256
  19171 WAT       -35.6820  -71.4160   -7.0830 O         1 <0>         0.0225
  19172 WAT       -35.6820  -71.4160   -6.8330 O         1 <0>         0.0123
  19173 WAT       -35.6820  -71.4160   -6.5830 O         1 <0>         0.0041
  19174 WAT       -35.6820  -71.4160   -6.3330 O         1 <0>         0.0008
  19175 WAT       -35.6820  -71.4160   -6.0830 O         1 <0>         0.0001
  19176 WAT       -35.6820  -71.4160   -5.8330 O         1 <0>         0.0000
  19177 WAT       -35.6820  -71.4160   -5.5830 O         1 <0>         0.0000
  19178 WAT       -35.6820  -71.4160   -5.3330 O         1 <0>         0.0000
  19179 WAT       -35.6820  -71.4160   -5.0830 O         1 <0>         0.0000
  19180 WAT       -35.6820  -71.4160   -4.8330 O         1 <0>         0.0000
  19181 WAT       -35.6820  -71.4160   -4.5830 O         1 <0>         0.0000
  19182 WAT       -35.6820  -71.4160   -4.3330 O         1 <0>         0.0000
  19183 WAT       -35.6820  -71.4160   -4.0830 O         1 <0>         0.0000
  19184 WAT       -35.6820  -71.4160   -3.8330 O         1 <0>         0.0000
  19185 WAT       -35.6820  -71.4160   -3.5830 O         1 <0>         0.0000
  19186 WAT       -35.6820  -71.4160   -3.3330 O         1 <0>         0.0000
  19187 WAT       -35.6820  -71.4160   -3.0830 O         1 <0>         0.0000
  19188 WAT       -35.6820  -71.4160   -2.8330 O         1 <0>         0.0000
  19189 WAT       -35.6820  -71.4160   -2.5830 O         1 <0>         0.0000
  19190 WAT       -35.6820  -71.4160   -2.3330 O         1 <0>         0.0000
  19191 WAT       -35.6820  -71.4160   -2.0830 O         1 <0>         0.0000
  19192 WAT       -35.6820  -71.4160   -1.8330 O         1 <0>         0.0000
  19193 WAT       -35.6820  -71.4160   -1.5830 O         1 <0>         0.0000
  19194 WAT       -35.6820  -71.4160   -1.3330 O         1 <0>         0.0000
  19195 WAT       -35.6820  -71.4160   -1.0830 O         1 <0>         0.0000
  19196 WAT       -35.6820  -71.4160   -0.8330 O         1 <0>         0.0000
  19197 WAT       -35.6820  -71.4160   -0.5830 O         1 <0>         0.0000
  19198 WAT       -35.6820  -71.4160   -0.3330 O         1 <0>         0.0000
  19199 WAT       -35.6820  -71.4160   -0.0830 O         1 <0>         0.0000
  19200 WAT       -35.6820  -71.1660   -9.8330 O         1 <0>         0.0000
  19201 WAT       -35.6820  -71.1660   -9.5830 O         1 <0>         0.0000
  19202 WAT       -35.6820  -71.1660   -9.3330 O         1 <0>         0.0000
  19203 WAT       -35.6820  -71.1660   -9.0830 O         1 <0>         0.0000
  19204 WAT       -35.6820  -71.1660   -8.8330 O         1 <0>         0.0000
  19205 WAT       -35.6820  -71.1660   -8.5830 O         1 <0>         0.0000
  19206 WAT       -35.6820  -71.1660   -8.3330 O         1 <0>         0.0001
  19207 WAT       -35.6820  -71.1660   -8.0830 O         1 <0>         0.0010
  19208 WAT       -35.6820  -71.1660   -7.8330 O         1 <0>         0.0044
  19209 WAT       -35.6820  -71.1660   -7.5830 O         1 <0>         0.0104
  19210 WAT       -35.6820  -71.1660   -7.3330 O         1 <0>         0.0143
  19211 WAT       -35.6820  -71.1660   -7.0830 O         1 <0>         0.0119
  19212 WAT       -35.6820  -71.1660   -6.8330 O         1 <0>         0.0061
  19213 WAT       -35.6820  -71.1660   -6.5830 O         1 <0>         0.0018
  19214 WAT       -35.6820  -71.1660   -6.3330 O         1 <0>         0.0003
  19215 WAT       -35.6820  -71.1660   -6.0830 O         1 <0>         0.0000
  19216 WAT       -35.6820  -71.1660   -5.8330 O         1 <0>         0.0000
  19217 WAT       -35.6820  -71.1660   -5.5830 O         1 <0>         0.0000
  19218 WAT       -35.6820  -71.1660   -5.3330 O         1 <0>         0.0000
  19219 WAT       -35.6820  -71.1660   -5.0830 O         1 <0>         0.0000
  19220 WAT       -35.6820  -71.1660   -4.8330 O         1 <0>         0.0000
  19221 WAT       -35.6820  -71.1660   -4.5830 O         1 <0>         0.0000
  19222 WAT       -35.6820  -71.1660   -4.3330 O         1 <0>         0.0000
  19223 WAT       -35.6820  -71.1660   -4.0830 O         1 <0>         0.0000
  19224 WAT       -35.6820  -71.1660   -3.8330 O         1 <0>         0.0000
  19225 WAT       -35.6820  -71.1660   -3.5830 O         1 <0>         0.0000
  19226 WAT       -35.6820  -71.1660   -3.3330 O         1 <0>         0.0000
  19227 WAT       -35.6820  -71.1660   -3.0830 O         1 <0>         0.0000
  19228 WAT       -35.6820  -71.1660   -2.8330 O         1 <0>         0.0000
  19229 WAT       -35.6820  -71.1660   -2.5830 O         1 <0>         0.0000
  19230 WAT       -35.6820  -71.1660   -2.3330 O         1 <0>         0.0000
  19231 WAT       -35.6820  -71.1660   -2.0830 O         1 <0>         0.0000
  19232 WAT       -35.6820  -71.1660   -1.8330 O         1 <0>         0.0000
  19233 WAT       -35.6820  -71.1660   -1.5830 O         1 <0>         0.0000
  19234 WAT       -35.6820  -71.1660   -1.3330 O         1 <0>         0.0000
  19235 WAT       -35.6820  -71.1660   -1.0830 O         1 <0>         0.0000
  19236 WAT       -35.6820  -71.1660   -0.8330 O         1 <0>         0.0000
  19237 WAT       -35.6820  -71.1660   -0.5830 O         1 <0>         0.0000
  19238 WAT       -35.6820  -71.1660   -0.3330 O         1 <0>         0.0000
  19239 WAT       -35.6820  -71.1660   -0.0830 O         1 <0>         0.0000
  19240 WAT       -35.6820  -70.9160   -9.8330 O         1 <0>         0.0000
  19241 WAT       -35.6820  -70.9160   -9.5830 O         1 <0>         0.0000
  19242 WAT       -35.6820  -70.9160   -9.3330 O         1 <0>         0.0000
  19243 WAT       -35.6820  -70.9160   -9.0830 O         1 <0>         0.0000
  19244 WAT       -35.6820  -70.9160   -8.8330 O         1 <0>         0.0000
  19245 WAT       -35.6820  -70.9160   -8.5830 O         1 <0>         0.0000
  19246 WAT       -35.6820  -70.9160   -8.3330 O         1 <0>         0.0000
  19247 WAT       -35.6820  -70.9160   -8.0830 O         1 <0>         0.0004
  19248 WAT       -35.6820  -70.9160   -7.8330 O         1 <0>         0.0020
  19249 WAT       -35.6820  -70.9160   -7.5830 O         1 <0>         0.0046
  19250 WAT       -35.6820  -70.9160   -7.3330 O         1 <0>         0.0062
  19251 WAT       -35.6820  -70.9160   -7.0830 O         1 <0>         0.0050
  19252 WAT       -35.6820  -70.9160   -6.8330 O         1 <0>         0.0024
  19253 WAT       -35.6820  -70.9160   -6.5830 O         1 <0>         0.0006
  19254 WAT       -35.6820  -70.9160   -6.3330 O         1 <0>         0.0001
  19255 WAT       -35.6820  -70.9160   -6.0830 O         1 <0>         0.0000
  19256 WAT       -35.6820  -70.9160   -5.8330 O         1 <0>         0.0000
  19257 WAT       -35.6820  -70.9160   -5.5830 O         1 <0>         0.0000
  19258 WAT       -35.6820  -70.9160   -5.3330 O         1 <0>         0.0000
  19259 WAT       -35.6820  -70.9160   -5.0830 O         1 <0>         0.0000
  19260 WAT       -35.6820  -70.9160   -4.8330 O         1 <0>         0.0000
  19261 WAT       -35.6820  -70.9160   -4.5830 O         1 <0>         0.0000
  19262 WAT       -35.6820  -70.9160   -4.3330 O         1 <0>         0.0000
  19263 WAT       -35.6820  -70.9160   -4.0830 O         1 <0>         0.0000
  19264 WAT       -35.6820  -70.9160   -3.8330 O         1 <0>         0.0000
  19265 WAT       -35.6820  -70.9160   -3.5830 O         1 <0>         0.0000
  19266 WAT       -35.6820  -70.9160   -3.3330 O         1 <0>         0.0000
  19267 WAT       -35.6820  -70.9160   -3.0830 O         1 <0>         0.0000
  19268 WAT       -35.6820  -70.9160   -2.8330 O         1 <0>         0.0000
  19269 WAT       -35.6820  -70.9160   -2.5830 O         1 <0>         0.0000
  19270 WAT       -35.6820  -70.9160   -2.3330 O         1 <0>         0.0000
  19271 WAT       -35.6820  -70.9160   -2.0830 O         1 <0>         0.0000
  19272 WAT       -35.6820  -70.9160   -1.8330 O         1 <0>         0.0000
  19273 WAT       -35.6820  -70.9160   -1.5830 O         1 <0>         0.0000
  19274 WAT       -35.6820  -70.9160   -1.3330 O         1 <0>         0.0000
  19275 WAT       -35.6820  -70.9160   -1.0830 O         1 <0>         0.0000
  19276 WAT       -35.6820  -70.9160   -0.8330 O         1 <0>         0.0000
  19277 WAT       -35.6820  -70.9160   -0.5830 O         1 <0>         0.0000
  19278 WAT       -35.6820  -70.9160   -0.3330 O         1 <0>         0.0000
  19279 WAT       -35.6820  -70.9160   -0.0830 O         1 <0>         0.0000
  19280 WAT       -35.6820  -70.6660   -9.8330 O         1 <0>         0.0000
  19281 WAT       -35.6820  -70.6660   -9.5830 O         1 <0>         0.0000
  19282 WAT       -35.6820  -70.6660   -9.3330 O         1 <0>         0.0000
  19283 WAT       -35.6820  -70.6660   -9.0830 O         1 <0>         0.0000
  19284 WAT       -35.6820  -70.6660   -8.8330 O         1 <0>         0.0000
  19285 WAT       -35.6820  -70.6660   -8.5830 O         1 <0>         0.0000
  19286 WAT       -35.6820  -70.6660   -8.3330 O         1 <0>         0.0000
  19287 WAT       -35.6820  -70.6660   -8.0830 O         1 <0>         0.0001
  19288 WAT       -35.6820  -70.6660   -7.8330 O         1 <0>         0.0006
  19289 WAT       -35.6820  -70.6660   -7.5830 O         1 <0>         0.0015
  19290 WAT       -35.6820  -70.6660   -7.3330 O         1 <0>         0.0020
  19291 WAT       -35.6820  -70.6660   -7.0830 O         1 <0>         0.0016
  19292 WAT       -35.6820  -70.6660   -6.8330 O         1 <0>         0.0007
  19293 WAT       -35.6820  -70.6660   -6.5830 O         1 <0>         0.0002
  19294 WAT       -35.6820  -70.6660   -6.3330 O         1 <0>         0.0000
  19295 WAT       -35.6820  -70.6660   -6.0830 O         1 <0>         0.0000
  19296 WAT       -35.6820  -70.6660   -5.8330 O         1 <0>         0.0000
  19297 WAT       -35.6820  -70.6660   -5.5830 O         1 <0>         0.0000
  19298 WAT       -35.6820  -70.6660   -5.3330 O         1 <0>         0.0000
  19299 WAT       -35.6820  -70.6660   -5.0830 O         1 <0>         0.0000
  19300 WAT       -35.6820  -70.6660   -4.8330 O         1 <0>         0.0000
  19301 WAT       -35.6820  -70.6660   -4.5830 O         1 <0>         0.0000
  19302 WAT       -35.6820  -70.6660   -4.3330 O         1 <0>         0.0000
  19303 WAT       -35.6820  -70.6660   -4.0830 O         1 <0>         0.0000
  19304 WAT       -35.6820  -70.6660   -3.8330 O         1 <0>         0.0000
  19305 WAT       -35.6820  -70.6660   -3.5830 O         1 <0>         0.0000
  19306 WAT       -35.6820  -70.6660   -3.3330 O         1 <0>         0.0000
  19307 WAT       -35.6820  -70.6660   -3.0830 O         1 <0>         0.0000
  19308 WAT       -35.6820  -70.6660   -2.8330 O         1 <0>         0.0000
  19309 WAT       -35.6820  -70.6660   -2.5830 O         1 <0>         0.0000
  19310 WAT       -35.6820  -70.6660   -2.3330 O         1 <0>         0.0000
  19311 WAT       -35.6820  -70.6660   -2.0830 O         1 <0>         0.0000
  19312 WAT       -35.6820  -70.6660   -1.8330 O         1 <0>         0.0000
  19313 WAT       -35.6820  -70.6660   -1.5830 O         1 <0>         0.0000
  19314 WAT       -35.6820  -70.6660   -1.3330 O         1 <0>         0.0000
  19315 WAT       -35.6820  -70.6660   -1.0830 O         1 <0>         0.0000
  19316 WAT       -35.6820  -70.6660   -0.8330 O         1 <0>         0.0000
  19317 WAT       -35.6820  -70.6660   -0.5830 O         1 <0>         0.0000
  19318 WAT       -35.6820  -70.6660   -0.3330 O         1 <0>         0.0000
  19319 WAT       -35.6820  -70.6660   -0.0830 O         1 <0>         0.0000
  19320 WAT       -35.6820  -70.4160   -9.8330 O         1 <0>         0.0000
  19321 WAT       -35.6820  -70.4160   -9.5830 O         1 <0>         0.0000
  19322 WAT       -35.6820  -70.4160   -9.3330 O         1 <0>         0.0000
  19323 WAT       -35.6820  -70.4160   -9.0830 O         1 <0>         0.0000
  19324 WAT       -35.6820  -70.4160   -8.8330 O         1 <0>         0.0000
  19325 WAT       -35.6820  -70.4160   -8.5830 O         1 <0>         0.0000
  19326 WAT       -35.6820  -70.4160   -8.3330 O         1 <0>         0.0000
  19327 WAT       -35.6820  -70.4160   -8.0830 O         1 <0>         0.0000
  19328 WAT       -35.6820  -70.4160   -7.8330 O         1 <0>         0.0001
  19329 WAT       -35.6820  -70.4160   -7.5830 O         1 <0>         0.0003
  19330 WAT       -35.6820  -70.4160   -7.3330 O         1 <0>         0.0004
  19331 WAT       -35.6820  -70.4160   -7.0830 O         1 <0>         0.0004
  19332 WAT       -35.6820  -70.4160   -6.8330 O         1 <0>         0.0002
  19333 WAT       -35.6820  -70.4160   -6.5830 O         1 <0>         0.0000
  19334 WAT       -35.6820  -70.4160   -6.3330 O         1 <0>         0.0000
  19335 WAT       -35.6820  -70.4160   -6.0830 O         1 <0>         0.0000
  19336 WAT       -35.6820  -70.4160   -5.8330 O         1 <0>         0.0000
  19337 WAT       -35.6820  -70.4160   -5.5830 O         1 <0>         0.0000
  19338 WAT       -35.6820  -70.4160   -5.3330 O         1 <0>         0.0000
  19339 WAT       -35.6820  -70.4160   -5.0830 O         1 <0>         0.0000
  19340 WAT       -35.6820  -70.4160   -4.8330 O         1 <0>         0.0000
  19341 WAT       -35.6820  -70.4160   -4.5830 O         1 <0>         0.0000
  19342 WAT       -35.6820  -70.4160   -4.3330 O         1 <0>         0.0000
  19343 WAT       -35.6820  -70.4160   -4.0830 O         1 <0>         0.0000
  19344 WAT       -35.6820  -70.4160   -3.8330 O         1 <0>         0.0000
  19345 WAT       -35.6820  -70.4160   -3.5830 O         1 <0>         0.0000
  19346 WAT       -35.6820  -70.4160   -3.3330 O         1 <0>         0.0000
  19347 WAT       -35.6820  -70.4160   -3.0830 O         1 <0>         0.0000
  19348 WAT       -35.6820  -70.4160   -2.8330 O         1 <0>         0.0000
  19349 WAT       -35.6820  -70.4160   -2.5830 O         1 <0>         0.0000
  19350 WAT       -35.6820  -70.4160   -2.3330 O         1 <0>         0.0000
  19351 WAT       -35.6820  -70.4160   -2.0830 O         1 <0>         0.0000
  19352 WAT       -35.6820  -70.4160   -1.8330 O         1 <0>         0.0000
  19353 WAT       -35.6820  -70.4160   -1.5830 O         1 <0>         0.0000
  19354 WAT       -35.6820  -70.4160   -1.3330 O         1 <0>         0.0000
  19355 WAT       -35.6820  -70.4160   -1.0830 O         1 <0>         0.0000
  19356 WAT       -35.6820  -70.4160   -0.8330 O         1 <0>         0.0000
  19357 WAT       -35.6820  -70.4160   -0.5830 O         1 <0>         0.0000
  19358 WAT       -35.6820  -70.4160   -0.3330 O         1 <0>         0.0000
  19359 WAT       -35.6820  -70.4160   -0.0830 O         1 <0>         0.0000
  19360 WAT       -35.6820  -70.1660   -9.8330 O         1 <0>         0.0000
  19361 WAT       -35.6820  -70.1660   -9.5830 O         1 <0>         0.0000
  19362 WAT       -35.6820  -70.1660   -9.3330 O         1 <0>         0.0000
  19363 WAT       -35.6820  -70.1660   -9.0830 O         1 <0>         0.0000
  19364 WAT       -35.6820  -70.1660   -8.8330 O         1 <0>         0.0000
  19365 WAT       -35.6820  -70.1660   -8.5830 O         1 <0>         0.0000
  19366 WAT       -35.6820  -70.1660   -8.3330 O         1 <0>         0.0000
  19367 WAT       -35.6820  -70.1660   -8.0830 O         1 <0>         0.0000
  19368 WAT       -35.6820  -70.1660   -7.8330 O         1 <0>         0.0000
  19369 WAT       -35.6820  -70.1660   -7.5830 O         1 <0>         0.0000
  19370 WAT       -35.6820  -70.1660   -7.3330 O         1 <0>         0.0001
  19371 WAT       -35.6820  -70.1660   -7.0830 O         1 <0>         0.0000
  19372 WAT       -35.6820  -70.1660   -6.8330 O         1 <0>         0.0000
  19373 WAT       -35.6820  -70.1660   -6.5830 O         1 <0>         0.0000
  19374 WAT       -35.6820  -70.1660   -6.3330 O         1 <0>         0.0000
  19375 WAT       -35.6820  -70.1660   -6.0830 O         1 <0>         0.0000
  19376 WAT       -35.6820  -70.1660   -5.8330 O         1 <0>         0.0000
  19377 WAT       -35.6820  -70.1660   -5.5830 O         1 <0>         0.0000
  19378 WAT       -35.6820  -70.1660   -5.3330 O         1 <0>         0.0000
  19379 WAT       -35.6820  -70.1660   -5.0830 O         1 <0>         0.0000
  19380 WAT       -35.6820  -70.1660   -4.8330 O         1 <0>         0.0000
  19381 WAT       -35.6820  -70.1660   -4.5830 O         1 <0>         0.0000
  19382 WAT       -35.6820  -70.1660   -4.3330 O         1 <0>         0.0000
  19383 WAT       -35.6820  -70.1660   -4.0830 O         1 <0>         0.0000
  19384 WAT       -35.6820  -70.1660   -3.8330 O         1 <0>         0.0000
  19385 WAT       -35.6820  -70.1660   -3.5830 O         1 <0>         0.0000
  19386 WAT       -35.6820  -70.1660   -3.3330 O         1 <0>         0.0000
  19387 WAT       -35.6820  -70.1660   -3.0830 O         1 <0>         0.0000
  19388 WAT       -35.6820  -70.1660   -2.8330 O         1 <0>         0.0000
  19389 WAT       -35.6820  -70.1660   -2.5830 O         1 <0>         0.0000
  19390 WAT       -35.6820  -70.1660   -2.3330 O         1 <0>         0.0000
  19391 WAT       -35.6820  -70.1660   -2.0830 O         1 <0>         0.0000
  19392 WAT       -35.6820  -70.1660   -1.8330 O         1 <0>         0.0000
  19393 WAT       -35.6820  -70.1660   -1.5830 O         1 <0>         0.0000
  19394 WAT       -35.6820  -70.1660   -1.3330 O         1 <0>         0.0000
  19395 WAT       -35.6820  -70.1660   -1.0830 O         1 <0>         0.0000
  19396 WAT       -35.6820  -70.1660   -0.8330 O         1 <0>         0.0000
  19397 WAT       -35.6820  -70.1660   -0.5830 O         1 <0>         0.0000
  19398 WAT       -35.6820  -70.1660   -0.3330 O         1 <0>         0.0000
  19399 WAT       -35.6820  -70.1660   -0.0830 O         1 <0>         0.0000
  19400 WAT       -35.6820  -69.9160   -9.8330 O         1 <0>         0.0000
  19401 WAT       -35.6820  -69.9160   -9.5830 O         1 <0>         0.0000
  19402 WAT       -35.6820  -69.9160   -9.3330 O         1 <0>         0.0000
  19403 WAT       -35.6820  -69.9160   -9.0830 O         1 <0>         0.0000
  19404 WAT       -35.6820  -69.9160   -8.8330 O         1 <0>         0.0000
  19405 WAT       -35.6820  -69.9160   -8.5830 O         1 <0>         0.0000
  19406 WAT       -35.6820  -69.9160   -8.3330 O         1 <0>         0.0000
  19407 WAT       -35.6820  -69.9160   -8.0830 O         1 <0>         0.0000
  19408 WAT       -35.6820  -69.9160   -7.8330 O         1 <0>         0.0000
  19409 WAT       -35.6820  -69.9160   -7.5830 O         1 <0>         0.0000
  19410 WAT       -35.6820  -69.9160   -7.3330 O         1 <0>         0.0000
  19411 WAT       -35.6820  -69.9160   -7.0830 O         1 <0>         0.0000
  19412 WAT       -35.6820  -69.9160   -6.8330 O         1 <0>         0.0000
  19413 WAT       -35.6820  -69.9160   -6.5830 O         1 <0>         0.0000
  19414 WAT       -35.6820  -69.9160   -6.3330 O         1 <0>         0.0000
  19415 WAT       -35.6820  -69.9160   -6.0830 O         1 <0>         0.0000
  19416 WAT       -35.6820  -69.9160   -5.8330 O         1 <0>         0.0000
  19417 WAT       -35.6820  -69.9160   -5.5830 O         1 <0>         0.0000
  19418 WAT       -35.6820  -69.9160   -5.3330 O         1 <0>         0.0000
  19419 WAT       -35.6820  -69.9160   -5.0830 O         1 <0>         0.0000
  19420 WAT       -35.6820  -69.9160   -4.8330 O         1 <0>         0.0000
  19421 WAT       -35.6820  -69.9160   -4.5830 O         1 <0>         0.0000
  19422 WAT       -35.6820  -69.9160   -4.3330 O         1 <0>         0.0000
  19423 WAT       -35.6820  -69.9160   -4.0830 O         1 <0>         0.0000
  19424 WAT       -35.6820  -69.9160   -3.8330 O         1 <0>         0.0000
  19425 WAT       -35.6820  -69.9160   -3.5830 O         1 <0>         0.0000
  19426 WAT       -35.6820  -69.9160   -3.3330 O         1 <0>         0.0000
  19427 WAT       -35.6820  -69.9160   -3.0830 O         1 <0>         0.0000
  19428 WAT       -35.6820  -69.9160   -2.8330 O         1 <0>         0.0000
  19429 WAT       -35.6820  -69.9160   -2.5830 O         1 <0>         0.0000
  19430 WAT       -35.6820  -69.9160   -2.3330 O         1 <0>         0.0000
  19431 WAT       -35.6820  -69.9160   -2.0830 O         1 <0>         0.0000
  19432 WAT       -35.6820  -69.9160   -1.8330 O         1 <0>         0.0000
  19433 WAT       -35.6820  -69.9160   -1.5830 O         1 <0>         0.0000
  19434 WAT       -35.6820  -69.9160   -1.3330 O         1 <0>         0.0000
  19435 WAT       -35.6820  -69.9160   -1.0830 O         1 <0>         0.0000
  19436 WAT       -35.6820  -69.9160   -0.8330 O         1 <0>         0.0000
  19437 WAT       -35.6820  -69.9160   -0.5830 O         1 <0>         0.0000
  19438 WAT       -35.6820  -69.9160   -0.3330 O         1 <0>         0.0000
  19439 WAT       -35.6820  -69.9160   -0.0830 O         1 <0>         0.0000
  19440 WAT       -35.6820  -69.6660   -9.8330 O         1 <0>         0.0000
  19441 WAT       -35.6820  -69.6660   -9.5830 O         1 <0>         0.0000
  19442 WAT       -35.6820  -69.6660   -9.3330 O         1 <0>         0.0000
  19443 WAT       -35.6820  -69.6660   -9.0830 O         1 <0>         0.0000
  19444 WAT       -35.6820  -69.6660   -8.8330 O         1 <0>         0.0000
  19445 WAT       -35.6820  -69.6660   -8.5830 O         1 <0>         0.0000
  19446 WAT       -35.6820  -69.6660   -8.3330 O         1 <0>         0.0000
  19447 WAT       -35.6820  -69.6660   -8.0830 O         1 <0>         0.0000
  19448 WAT       -35.6820  -69.6660   -7.8330 O         1 <0>         0.0000
  19449 WAT       -35.6820  -69.6660   -7.5830 O         1 <0>         0.0000
  19450 WAT       -35.6820  -69.6660   -7.3330 O         1 <0>         0.0000
  19451 WAT       -35.6820  -69.6660   -7.0830 O         1 <0>         0.0000
  19452 WAT       -35.6820  -69.6660   -6.8330 O         1 <0>         0.0000
  19453 WAT       -35.6820  -69.6660   -6.5830 O         1 <0>         0.0000
  19454 WAT       -35.6820  -69.6660   -6.3330 O         1 <0>         0.0000
  19455 WAT       -35.6820  -69.6660   -6.0830 O         1 <0>         0.0000
  19456 WAT       -35.6820  -69.6660   -5.8330 O         1 <0>         0.0000
  19457 WAT       -35.6820  -69.6660   -5.5830 O         1 <0>         0.0000
  19458 WAT       -35.6820  -69.6660   -5.3330 O         1 <0>         0.0000
  19459 WAT       -35.6820  -69.6660   -5.0830 O         1 <0>         0.0000
  19460 WAT       -35.6820  -69.6660   -4.8330 O         1 <0>         0.0000
  19461 WAT       -35.6820  -69.6660   -4.5830 O         1 <0>         0.0000
  19462 WAT       -35.6820  -69.6660   -4.3330 O         1 <0>         0.0000
  19463 WAT       -35.6820  -69.6660   -4.0830 O         1 <0>         0.0000
  19464 WAT       -35.6820  -69.6660   -3.8330 O         1 <0>         0.0000
  19465 WAT       -35.6820  -69.6660   -3.5830 O         1 <0>         0.0000
  19466 WAT       -35.6820  -69.6660   -3.3330 O         1 <0>         0.0000
  19467 WAT       -35.6820  -69.6660   -3.0830 O         1 <0>         0.0000
  19468 WAT       -35.6820  -69.6660   -2.8330 O         1 <0>         0.0000
  19469 WAT       -35.6820  -69.6660   -2.5830 O         1 <0>         0.0000
  19470 WAT       -35.6820  -69.6660   -2.3330 O         1 <0>         0.0000
  19471 WAT       -35.6820  -69.6660   -2.0830 O         1 <0>         0.0000
  19472 WAT       -35.6820  -69.6660   -1.8330 O         1 <0>         0.0000
  19473 WAT       -35.6820  -69.6660   -1.5830 O         1 <0>         0.0000
  19474 WAT       -35.6820  -69.6660   -1.3330 O         1 <0>         0.0000
  19475 WAT       -35.6820  -69.6660   -1.0830 O         1 <0>         0.0000
  19476 WAT       -35.6820  -69.6660   -0.8330 O         1 <0>         0.0000
  19477 WAT       -35.6820  -69.6660   -0.5830 O         1 <0>         0.0000
  19478 WAT       -35.6820  -69.6660   -0.3330 O         1 <0>         0.0000
  19479 WAT       -35.6820  -69.6660   -0.0830 O         1 <0>         0.0000
  19480 WAT       -35.6820  -69.4160   -9.8330 O         1 <0>         0.0000
  19481 WAT       -35.6820  -69.4160   -9.5830 O         1 <0>         0.0000
  19482 WAT       -35.6820  -69.4160   -9.3330 O         1 <0>         0.0000
  19483 WAT       -35.6820  -69.4160   -9.0830 O         1 <0>         0.0000
  19484 WAT       -35.6820  -69.4160   -8.8330 O         1 <0>         0.0000
  19485 WAT       -35.6820  -69.4160   -8.5830 O         1 <0>         0.0000
  19486 WAT       -35.6820  -69.4160   -8.3330 O         1 <0>         0.0000
  19487 WAT       -35.6820  -69.4160   -8.0830 O         1 <0>         0.0000
  19488 WAT       -35.6820  -69.4160   -7.8330 O         1 <0>         0.0000
  19489 WAT       -35.6820  -69.4160   -7.5830 O         1 <0>         0.0000
  19490 WAT       -35.6820  -69.4160   -7.3330 O         1 <0>         0.0000
  19491 WAT       -35.6820  -69.4160   -7.0830 O         1 <0>         0.0000
  19492 WAT       -35.6820  -69.4160   -6.8330 O         1 <0>         0.0000
  19493 WAT       -35.6820  -69.4160   -6.5830 O         1 <0>         0.0000
  19494 WAT       -35.6820  -69.4160   -6.3330 O         1 <0>         0.0000
  19495 WAT       -35.6820  -69.4160   -6.0830 O         1 <0>         0.0000
  19496 WAT       -35.6820  -69.4160   -5.8330 O         1 <0>         0.0000
  19497 WAT       -35.6820  -69.4160   -5.5830 O         1 <0>         0.0000
  19498 WAT       -35.6820  -69.4160   -5.3330 O         1 <0>         0.0000
  19499 WAT       -35.6820  -69.4160   -5.0830 O         1 <0>         0.0000
  19500 WAT       -35.6820  -69.4160   -4.8330 O         1 <0>         0.0000
  19501 WAT       -35.6820  -69.4160   -4.5830 O         1 <0>         0.0000
  19502 WAT       -35.6820  -69.4160   -4.3330 O         1 <0>         0.0000
  19503 WAT       -35.6820  -69.4160   -4.0830 O         1 <0>         0.0000
  19504 WAT       -35.6820  -69.4160   -3.8330 O         1 <0>         0.0000
  19505 WAT       -35.6820  -69.4160   -3.5830 O         1 <0>         0.0000
  19506 WAT       -35.6820  -69.4160   -3.3330 O         1 <0>         0.0000
  19507 WAT       -35.6820  -69.4160   -3.0830 O         1 <0>         0.0000
  19508 WAT       -35.6820  -69.4160   -2.8330 O         1 <0>         0.0000
  19509 WAT       -35.6820  -69.4160   -2.5830 O         1 <0>         0.0000
  19510 WAT       -35.6820  -69.4160   -2.3330 O         1 <0>         0.0000
  19511 WAT       -35.6820  -69.4160   -2.0830 O         1 <0>         0.0000
  19512 WAT       -35.6820  -69.4160   -1.8330 O         1 <0>         0.0000
  19513 WAT       -35.6820  -69.4160   -1.5830 O         1 <0>         0.0000
  19514 WAT       -35.6820  -69.4160   -1.3330 O         1 <0>         0.0000
  19515 WAT       -35.6820  -69.4160   -1.0830 O         1 <0>         0.0000
  19516 WAT       -35.6820  -69.4160   -0.8330 O         1 <0>         0.0000
  19517 WAT       -35.6820  -69.4160   -0.5830 O         1 <0>         0.0000
  19518 WAT       -35.6820  -69.4160   -0.3330 O         1 <0>         0.0000
  19519 WAT       -35.6820  -69.4160   -0.0830 O         1 <0>         0.0000
  19520 WAT       -35.6820  -69.1660   -9.8330 O         1 <0>         0.0000
  19521 WAT       -35.6820  -69.1660   -9.5830 O         1 <0>         0.0000
  19522 WAT       -35.6820  -69.1660   -9.3330 O         1 <0>         0.0000
  19523 WAT       -35.6820  -69.1660   -9.0830 O         1 <0>         0.0000
  19524 WAT       -35.6820  -69.1660   -8.8330 O         1 <0>         0.0000
  19525 WAT       -35.6820  -69.1660   -8.5830 O         1 <0>         0.0000
  19526 WAT       -35.6820  -69.1660   -8.3330 O         1 <0>         0.0000
  19527 WAT       -35.6820  -69.1660   -8.0830 O         1 <0>         0.0000
  19528 WAT       -35.6820  -69.1660   -7.8330 O         1 <0>         0.0000
  19529 WAT       -35.6820  -69.1660   -7.5830 O         1 <0>         0.0000
  19530 WAT       -35.6820  -69.1660   -7.3330 O         1 <0>         0.0000
  19531 WAT       -35.6820  -69.1660   -7.0830 O         1 <0>         0.0000
  19532 WAT       -35.6820  -69.1660   -6.8330 O         1 <0>         0.0000
  19533 WAT       -35.6820  -69.1660   -6.5830 O         1 <0>         0.0000
  19534 WAT       -35.6820  -69.1660   -6.3330 O         1 <0>         0.0000
  19535 WAT       -35.6820  -69.1660   -6.0830 O         1 <0>         0.0000
  19536 WAT       -35.6820  -69.1660   -5.8330 O         1 <0>         0.0000
  19537 WAT       -35.6820  -69.1660   -5.5830 O         1 <0>         0.0000
  19538 WAT       -35.6820  -69.1660   -5.3330 O         1 <0>         0.0000
  19539 WAT       -35.6820  -69.1660   -5.0830 O         1 <0>         0.0000
  19540 WAT       -35.6820  -69.1660   -4.8330 O         1 <0>         0.0000
  19541 WAT       -35.6820  -69.1660   -4.5830 O         1 <0>         0.0000
  19542 WAT       -35.6820  -69.1660   -4.3330 O         1 <0>         0.0000
  19543 WAT       -35.6820  -69.1660   -4.0830 O         1 <0>         0.0000
  19544 WAT       -35.6820  -69.1660   -3.8330 O         1 <0>         0.0000
  19545 WAT       -35.6820  -69.1660   -3.5830 O         1 <0>         0.0000
  19546 WAT       -35.6820  -69.1660   -3.3330 O         1 <0>         0.0000
  19547 WAT       -35.6820  -69.1660   -3.0830 O         1 <0>         0.0000
  19548 WAT       -35.6820  -69.1660   -2.8330 O         1 <0>         0.0000
  19549 WAT       -35.6820  -69.1660   -2.5830 O         1 <0>         0.0000
  19550 WAT       -35.6820  -69.1660   -2.3330 O         1 <0>         0.0000
  19551 WAT       -35.6820  -69.1660   -2.0830 O         1 <0>         0.0000
  19552 WAT       -35.6820  -69.1660   -1.8330 O         1 <0>         0.0000
  19553 WAT       -35.6820  -69.1660   -1.5830 O         1 <0>         0.0000
  19554 WAT       -35.6820  -69.1660   -1.3330 O         1 <0>         0.0000
  19555 WAT       -35.6820  -69.1660   -1.0830 O         1 <0>         0.0000
  19556 WAT       -35.6820  -69.1660   -0.8330 O         1 <0>         0.0000
  19557 WAT       -35.6820  -69.1660   -0.5830 O         1 <0>         0.0000
  19558 WAT       -35.6820  -69.1660   -0.3330 O         1 <0>         0.0000
  19559 WAT       -35.6820  -69.1660   -0.0830 O         1 <0>         0.0000
  19560 WAT       -35.6820  -68.9160   -9.8330 O         1 <0>         0.0000
  19561 WAT       -35.6820  -68.9160   -9.5830 O         1 <0>         0.0000
  19562 WAT       -35.6820  -68.9160   -9.3330 O         1 <0>         0.0000
  19563 WAT       -35.6820  -68.9160   -9.0830 O         1 <0>         0.0000
  19564 WAT       -35.6820  -68.9160   -8.8330 O         1 <0>         0.0000
  19565 WAT       -35.6820  -68.9160   -8.5830 O         1 <0>         0.0000
  19566 WAT       -35.6820  -68.9160   -8.3330 O         1 <0>         0.0000
  19567 WAT       -35.6820  -68.9160   -8.0830 O         1 <0>         0.0000
  19568 WAT       -35.6820  -68.9160   -7.8330 O         1 <0>         0.0000
  19569 WAT       -35.6820  -68.9160   -7.5830 O         1 <0>         0.0000
  19570 WAT       -35.6820  -68.9160   -7.3330 O         1 <0>         0.0000
  19571 WAT       -35.6820  -68.9160   -7.0830 O         1 <0>         0.0000
  19572 WAT       -35.6820  -68.9160   -6.8330 O         1 <0>         0.0000
  19573 WAT       -35.6820  -68.9160   -6.5830 O         1 <0>         0.0000
  19574 WAT       -35.6820  -68.9160   -6.3330 O         1 <0>         0.0000
  19575 WAT       -35.6820  -68.9160   -6.0830 O         1 <0>         0.0000
  19576 WAT       -35.6820  -68.9160   -5.8330 O         1 <0>         0.0000
  19577 WAT       -35.6820  -68.9160   -5.5830 O         1 <0>         0.0000
  19578 WAT       -35.6820  -68.9160   -5.3330 O         1 <0>         0.0000
  19579 WAT       -35.6820  -68.9160   -5.0830 O         1 <0>         0.0000
  19580 WAT       -35.6820  -68.9160   -4.8330 O         1 <0>         0.0000
  19581 WAT       -35.6820  -68.9160   -4.5830 O         1 <0>         0.0000
  19582 WAT       -35.6820  -68.9160   -4.3330 O         1 <0>         0.0000
  19583 WAT       -35.6820  -68.9160   -4.0830 O         1 <0>         0.0000
  19584 WAT       -35.6820  -68.9160   -3.8330 O         1 <0>         0.0000
  19585 WAT       -35.6820  -68.9160   -3.5830 O         1 <0>         0.0000
  19586 WAT       -35.6820  -68.9160   -3.3330 O         1 <0>         0.0000
  19587 WAT       -35.6820  -68.9160   -3.0830 O         1 <0>         0.0000
  19588 WAT       -35.6820  -68.9160   -2.8330 O         1 <0>         0.0000
  19589 WAT       -35.6820  -68.9160   -2.5830 O         1 <0>         0.0000
  19590 WAT       -35.6820  -68.9160   -2.3330 O         1 <0>         0.0000
  19591 WAT       -35.6820  -68.9160   -2.0830 O         1 <0>         0.0000
  19592 WAT       -35.6820  -68.9160   -1.8330 O         1 <0>         0.0000
  19593 WAT       -35.6820  -68.9160   -1.5830 O         1 <0>         0.0000
  19594 WAT       -35.6820  -68.9160   -1.3330 O         1 <0>         0.0000
  19595 WAT       -35.6820  -68.9160   -1.0830 O         1 <0>         0.0000
  19596 WAT       -35.6820  -68.9160   -0.8330 O         1 <0>         0.0000
  19597 WAT       -35.6820  -68.9160   -0.5830 O         1 <0>         0.0000
  19598 WAT       -35.6820  -68.9160   -0.3330 O         1 <0>         0.0000
  19599 WAT       -35.6820  -68.9160   -0.0830 O         1 <0>         0.0000
  19600 WAT       -35.4320  -77.4160   -9.8330 O         1 <0>         0.0000
  19601 WAT       -35.4320  -77.4160   -9.5830 O         1 <0>         0.0000
  19602 WAT       -35.4320  -77.4160   -9.3330 O         1 <0>         0.0000
  19603 WAT       -35.4320  -77.4160   -9.0830 O         1 <0>         0.0000
  19604 WAT       -35.4320  -77.4160   -8.8330 O         1 <0>         0.0000
  19605 WAT       -35.4320  -77.4160   -8.5830 O         1 <0>         0.0000
  19606 WAT       -35.4320  -77.4160   -8.3330 O         1 <0>         0.0000
  19607 WAT       -35.4320  -77.4160   -8.0830 O         1 <0>         0.0000
  19608 WAT       -35.4320  -77.4160   -7.8330 O         1 <0>         0.0000
  19609 WAT       -35.4320  -77.4160   -7.5830 O         1 <0>         0.0000
  19610 WAT       -35.4320  -77.4160   -7.3330 O         1 <0>         0.0000
  19611 WAT       -35.4320  -77.4160   -7.0830 O         1 <0>         0.0000
  19612 WAT       -35.4320  -77.4160   -6.8330 O         1 <0>         0.0000
  19613 WAT       -35.4320  -77.4160   -6.5830 O         1 <0>         0.0000
  19614 WAT       -35.4320  -77.4160   -6.3330 O         1 <0>         0.0000
  19615 WAT       -35.4320  -77.4160   -6.0830 O         1 <0>         0.0000
  19616 WAT       -35.4320  -77.4160   -5.8330 O         1 <0>         0.0000
  19617 WAT       -35.4320  -77.4160   -5.5830 O         1 <0>         0.0000
  19618 WAT       -35.4320  -77.4160   -5.3330 O         1 <0>         0.0000
  19619 WAT       -35.4320  -77.4160   -5.0830 O         1 <0>         0.0000
  19620 WAT       -35.4320  -77.4160   -4.8330 O         1 <0>         0.0000
  19621 WAT       -35.4320  -77.4160   -4.5830 O         1 <0>         0.0000
  19622 WAT       -35.4320  -77.4160   -4.3330 O         1 <0>         0.0000
  19623 WAT       -35.4320  -77.4160   -4.0830 O         1 <0>         0.0000
  19624 WAT       -35.4320  -77.4160   -3.8330 O         1 <0>         0.0000
  19625 WAT       -35.4320  -77.4160   -3.5830 O         1 <0>         0.0000
  19626 WAT       -35.4320  -77.4160   -3.3330 O         1 <0>         0.0000
  19627 WAT       -35.4320  -77.4160   -3.0830 O         1 <0>         0.0000
  19628 WAT       -35.4320  -77.4160   -2.8330 O         1 <0>         0.0000
  19629 WAT       -35.4320  -77.4160   -2.5830 O         1 <0>         0.0000
  19630 WAT       -35.4320  -77.4160   -2.3330 O         1 <0>         0.0000
  19631 WAT       -35.4320  -77.4160   -2.0830 O         1 <0>         0.0000
  19632 WAT       -35.4320  -77.4160   -1.8330 O         1 <0>         0.0000
  19633 WAT       -35.4320  -77.4160   -1.5830 O         1 <0>         0.0000
  19634 WAT       -35.4320  -77.4160   -1.3330 O         1 <0>         0.0000
  19635 WAT       -35.4320  -77.4160   -1.0830 O         1 <0>         0.0000
  19636 WAT       -35.4320  -77.4160   -0.8330 O         1 <0>         0.0000
  19637 WAT       -35.4320  -77.4160   -0.5830 O         1 <0>         0.0000
  19638 WAT       -35.4320  -77.4160   -0.3330 O         1 <0>         0.0000
  19639 WAT       -35.4320  -77.4160   -0.0830 O         1 <0>         0.0000
  19640 WAT       -35.4320  -77.1660   -9.8330 O         1 <0>         0.0000
  19641 WAT       -35.4320  -77.1660   -9.5830 O         1 <0>         0.0000
  19642 WAT       -35.4320  -77.1660   -9.3330 O         1 <0>         0.0000
  19643 WAT       -35.4320  -77.1660   -9.0830 O         1 <0>         0.0000
  19644 WAT       -35.4320  -77.1660   -8.8330 O         1 <0>         0.0000
  19645 WAT       -35.4320  -77.1660   -8.5830 O         1 <0>         0.0000
  19646 WAT       -35.4320  -77.1660   -8.3330 O         1 <0>         0.0000
  19647 WAT       -35.4320  -77.1660   -8.0830 O         1 <0>         0.0000
  19648 WAT       -35.4320  -77.1660   -7.8330 O         1 <0>         0.0000
  19649 WAT       -35.4320  -77.1660   -7.5830 O         1 <0>         0.0000
  19650 WAT       -35.4320  -77.1660   -7.3330 O         1 <0>         0.0000
  19651 WAT       -35.4320  -77.1660   -7.0830 O         1 <0>         0.0000
  19652 WAT       -35.4320  -77.1660   -6.8330 O         1 <0>         0.0000
  19653 WAT       -35.4320  -77.1660   -6.5830 O         1 <0>         0.0000
  19654 WAT       -35.4320  -77.1660   -6.3330 O         1 <0>         0.0000
  19655 WAT       -35.4320  -77.1660   -6.0830 O         1 <0>         0.0000
  19656 WAT       -35.4320  -77.1660   -5.8330 O         1 <0>         0.0000
  19657 WAT       -35.4320  -77.1660   -5.5830 O         1 <0>         0.0000
  19658 WAT       -35.4320  -77.1660   -5.3330 O         1 <0>         0.0000
  19659 WAT       -35.4320  -77.1660   -5.0830 O         1 <0>         0.0000
  19660 WAT       -35.4320  -77.1660   -4.8330 O         1 <0>         0.0000
  19661 WAT       -35.4320  -77.1660   -4.5830 O         1 <0>         0.0000
  19662 WAT       -35.4320  -77.1660   -4.3330 O         1 <0>         0.0000
  19663 WAT       -35.4320  -77.1660   -4.0830 O         1 <0>         0.0000
  19664 WAT       -35.4320  -77.1660   -3.8330 O         1 <0>         0.0000
  19665 WAT       -35.4320  -77.1660   -3.5830 O         1 <0>         0.0000
  19666 WAT       -35.4320  -77.1660   -3.3330 O         1 <0>         0.0000
  19667 WAT       -35.4320  -77.1660   -3.0830 O         1 <0>         0.0000
  19668 WAT       -35.4320  -77.1660   -2.8330 O         1 <0>         0.0000
  19669 WAT       -35.4320  -77.1660   -2.5830 O         1 <0>         0.0000
  19670 WAT       -35.4320  -77.1660   -2.3330 O         1 <0>         0.0000
  19671 WAT       -35.4320  -77.1660   -2.0830 O         1 <0>         0.0000
  19672 WAT       -35.4320  -77.1660   -1.8330 O         1 <0>         0.0000
  19673 WAT       -35.4320  -77.1660   -1.5830 O         1 <0>         0.0000
  19674 WAT       -35.4320  -77.1660   -1.3330 O         1 <0>         0.0000
  19675 WAT       -35.4320  -77.1660   -1.0830 O         1 <0>         0.0000
  19676 WAT       -35.4320  -77.1660   -0.8330 O         1 <0>         0.0000
  19677 WAT       -35.4320  -77.1660   -0.5830 O         1 <0>         0.0000
  19678 WAT       -35.4320  -77.1660   -0.3330 O         1 <0>         0.0000
  19679 WAT       -35.4320  -77.1660   -0.0830 O         1 <0>         0.0000
  19680 WAT       -35.4320  -76.9160   -9.8330 O         1 <0>         0.0000
  19681 WAT       -35.4320  -76.9160   -9.5830 O         1 <0>         0.0000
  19682 WAT       -35.4320  -76.9160   -9.3330 O         1 <0>         0.0000
  19683 WAT       -35.4320  -76.9160   -9.0830 O         1 <0>         0.0000
  19684 WAT       -35.4320  -76.9160   -8.8330 O         1 <0>         0.0000
  19685 WAT       -35.4320  -76.9160   -8.5830 O         1 <0>         0.0000
  19686 WAT       -35.4320  -76.9160   -8.3330 O         1 <0>         0.0000
  19687 WAT       -35.4320  -76.9160   -8.0830 O         1 <0>         0.0000
  19688 WAT       -35.4320  -76.9160   -7.8330 O         1 <0>         0.0000
  19689 WAT       -35.4320  -76.9160   -7.5830 O         1 <0>         0.0000
  19690 WAT       -35.4320  -76.9160   -7.3330 O         1 <0>         0.0000
  19691 WAT       -35.4320  -76.9160   -7.0830 O         1 <0>         0.0000
  19692 WAT       -35.4320  -76.9160   -6.8330 O         1 <0>         0.0000
  19693 WAT       -35.4320  -76.9160   -6.5830 O         1 <0>         0.0000
  19694 WAT       -35.4320  -76.9160   -6.3330 O         1 <0>         0.0000
  19695 WAT       -35.4320  -76.9160   -6.0830 O         1 <0>         0.0000
  19696 WAT       -35.4320  -76.9160   -5.8330 O         1 <0>         0.0000
  19697 WAT       -35.4320  -76.9160   -5.5830 O         1 <0>         0.0000
  19698 WAT       -35.4320  -76.9160   -5.3330 O         1 <0>         0.0000
  19699 WAT       -35.4320  -76.9160   -5.0830 O         1 <0>         0.0000
  19700 WAT       -35.4320  -76.9160   -4.8330 O         1 <0>         0.0000
  19701 WAT       -35.4320  -76.9160   -4.5830 O         1 <0>         0.0000
  19702 WAT       -35.4320  -76.9160   -4.3330 O         1 <0>         0.0000
  19703 WAT       -35.4320  -76.9160   -4.0830 O         1 <0>         0.0000
  19704 WAT       -35.4320  -76.9160   -3.8330 O         1 <0>         0.0000
  19705 WAT       -35.4320  -76.9160   -3.5830 O         1 <0>         0.0000
  19706 WAT       -35.4320  -76.9160   -3.3330 O         1 <0>         0.0000
  19707 WAT       -35.4320  -76.9160   -3.0830 O         1 <0>         0.0000
  19708 WAT       -35.4320  -76.9160   -2.8330 O         1 <0>         0.0000
  19709 WAT       -35.4320  -76.9160   -2.5830 O         1 <0>         0.0000
  19710 WAT       -35.4320  -76.9160   -2.3330 O         1 <0>         0.0000
  19711 WAT       -35.4320  -76.9160   -2.0830 O         1 <0>         0.0000
  19712 WAT       -35.4320  -76.9160   -1.8330 O         1 <0>         0.0000
  19713 WAT       -35.4320  -76.9160   -1.5830 O         1 <0>         0.0000
  19714 WAT       -35.4320  -76.9160   -1.3330 O         1 <0>         0.0000
  19715 WAT       -35.4320  -76.9160   -1.0830 O         1 <0>         0.0000
  19716 WAT       -35.4320  -76.9160   -0.8330 O         1 <0>         0.0000
  19717 WAT       -35.4320  -76.9160   -0.5830 O         1 <0>         0.0000
  19718 WAT       -35.4320  -76.9160   -0.3330 O         1 <0>         0.0000
  19719 WAT       -35.4320  -76.9160   -0.0830 O         1 <0>         0.0000
  19720 WAT       -35.4320  -76.6660   -9.8330 O         1 <0>         0.0000
  19721 WAT       -35.4320  -76.6660   -9.5830 O         1 <0>         0.0000
  19722 WAT       -35.4320  -76.6660   -9.3330 O         1 <0>         0.0000
  19723 WAT       -35.4320  -76.6660   -9.0830 O         1 <0>         0.0000
  19724 WAT       -35.4320  -76.6660   -8.8330 O         1 <0>         0.0000
  19725 WAT       -35.4320  -76.6660   -8.5830 O         1 <0>         0.0000
  19726 WAT       -35.4320  -76.6660   -8.3330 O         1 <0>         0.0000
  19727 WAT       -35.4320  -76.6660   -8.0830 O         1 <0>         0.0000
  19728 WAT       -35.4320  -76.6660   -7.8330 O         1 <0>         0.0000
  19729 WAT       -35.4320  -76.6660   -7.5830 O         1 <0>         0.0000
  19730 WAT       -35.4320  -76.6660   -7.3330 O         1 <0>         0.0000
  19731 WAT       -35.4320  -76.6660   -7.0830 O         1 <0>         0.0000
  19732 WAT       -35.4320  -76.6660   -6.8330 O         1 <0>         0.0000
  19733 WAT       -35.4320  -76.6660   -6.5830 O         1 <0>         0.0000
  19734 WAT       -35.4320  -76.6660   -6.3330 O         1 <0>         0.0000
  19735 WAT       -35.4320  -76.6660   -6.0830 O         1 <0>         0.0000
  19736 WAT       -35.4320  -76.6660   -5.8330 O         1 <0>         0.0000
  19737 WAT       -35.4320  -76.6660   -5.5830 O         1 <0>         0.0000
  19738 WAT       -35.4320  -76.6660   -5.3330 O         1 <0>         0.0000
  19739 WAT       -35.4320  -76.6660   -5.0830 O         1 <0>         0.0000
  19740 WAT       -35.4320  -76.6660   -4.8330 O         1 <0>         0.0000
  19741 WAT       -35.4320  -76.6660   -4.5830 O         1 <0>         0.0000
  19742 WAT       -35.4320  -76.6660   -4.3330 O         1 <0>         0.0000
  19743 WAT       -35.4320  -76.6660   -4.0830 O         1 <0>         0.0000
  19744 WAT       -35.4320  -76.6660   -3.8330 O         1 <0>         0.0000
  19745 WAT       -35.4320  -76.6660   -3.5830 O         1 <0>         0.0000
  19746 WAT       -35.4320  -76.6660   -3.3330 O         1 <0>         0.0000
  19747 WAT       -35.4320  -76.6660   -3.0830 O         1 <0>         0.0000
  19748 WAT       -35.4320  -76.6660   -2.8330 O         1 <0>         0.0000
  19749 WAT       -35.4320  -76.6660   -2.5830 O         1 <0>         0.0000
  19750 WAT       -35.4320  -76.6660   -2.3330 O         1 <0>         0.0000
  19751 WAT       -35.4320  -76.6660   -2.0830 O         1 <0>         0.0000
  19752 WAT       -35.4320  -76.6660   -1.8330 O         1 <0>         0.0000
  19753 WAT       -35.4320  -76.6660   -1.5830 O         1 <0>         0.0000
  19754 WAT       -35.4320  -76.6660   -1.3330 O         1 <0>         0.0000
  19755 WAT       -35.4320  -76.6660   -1.0830 O         1 <0>         0.0000
  19756 WAT       -35.4320  -76.6660   -0.8330 O         1 <0>         0.0000
  19757 WAT       -35.4320  -76.6660   -0.5830 O         1 <0>         0.0000
  19758 WAT       -35.4320  -76.6660   -0.3330 O         1 <0>         0.0000
  19759 WAT       -35.4320  -76.6660   -0.0830 O         1 <0>         0.0000
  19760 WAT       -35.4320  -76.4160   -9.8330 O         1 <0>         0.0000
  19761 WAT       -35.4320  -76.4160   -9.5830 O         1 <0>         0.0000
  19762 WAT       -35.4320  -76.4160   -9.3330 O         1 <0>         0.0000
  19763 WAT       -35.4320  -76.4160   -9.0830 O         1 <0>         0.0000
  19764 WAT       -35.4320  -76.4160   -8.8330 O         1 <0>         0.0000
  19765 WAT       -35.4320  -76.4160   -8.5830 O         1 <0>         0.0000
  19766 WAT       -35.4320  -76.4160   -8.3330 O         1 <0>         0.0000
  19767 WAT       -35.4320  -76.4160   -8.0830 O         1 <0>         0.0000
  19768 WAT       -35.4320  -76.4160   -7.8330 O         1 <0>         0.0000
  19769 WAT       -35.4320  -76.4160   -7.5830 O         1 <0>         0.0000
  19770 WAT       -35.4320  -76.4160   -7.3330 O         1 <0>         0.0000
  19771 WAT       -35.4320  -76.4160   -7.0830 O         1 <0>         0.0000
  19772 WAT       -35.4320  -76.4160   -6.8330 O         1 <0>         0.0000
  19773 WAT       -35.4320  -76.4160   -6.5830 O         1 <0>         0.0000
  19774 WAT       -35.4320  -76.4160   -6.3330 O         1 <0>         0.0000
  19775 WAT       -35.4320  -76.4160   -6.0830 O         1 <0>         0.0000
  19776 WAT       -35.4320  -76.4160   -5.8330 O         1 <0>         0.0000
  19777 WAT       -35.4320  -76.4160   -5.5830 O         1 <0>         0.0000
  19778 WAT       -35.4320  -76.4160   -5.3330 O         1 <0>         0.0000
  19779 WAT       -35.4320  -76.4160   -5.0830 O         1 <0>         0.0000
  19780 WAT       -35.4320  -76.4160   -4.8330 O         1 <0>         0.0000
  19781 WAT       -35.4320  -76.4160   -4.5830 O         1 <0>         0.0000
  19782 WAT       -35.4320  -76.4160   -4.3330 O         1 <0>         0.0000
  19783 WAT       -35.4320  -76.4160   -4.0830 O         1 <0>         0.0000
  19784 WAT       -35.4320  -76.4160   -3.8330 O         1 <0>         0.0000
  19785 WAT       -35.4320  -76.4160   -3.5830 O         1 <0>         0.0001
  19786 WAT       -35.4320  -76.4160   -3.3330 O         1 <0>         0.0001
  19787 WAT       -35.4320  -76.4160   -3.0830 O         1 <0>         0.0000
  19788 WAT       -35.4320  -76.4160   -2.8330 O         1 <0>         0.0000
  19789 WAT       -35.4320  -76.4160   -2.5830 O         1 <0>         0.0000
  19790 WAT       -35.4320  -76.4160   -2.3330 O         1 <0>         0.0000
  19791 WAT       -35.4320  -76.4160   -2.0830 O         1 <0>         0.0000
  19792 WAT       -35.4320  -76.4160   -1.8330 O         1 <0>         0.0000
  19793 WAT       -35.4320  -76.4160   -1.5830 O         1 <0>         0.0000
  19794 WAT       -35.4320  -76.4160   -1.3330 O         1 <0>         0.0000
  19795 WAT       -35.4320  -76.4160   -1.0830 O         1 <0>         0.0000
  19796 WAT       -35.4320  -76.4160   -0.8330 O         1 <0>         0.0000
  19797 WAT       -35.4320  -76.4160   -0.5830 O         1 <0>         0.0000
  19798 WAT       -35.4320  -76.4160   -0.3330 O         1 <0>         0.0000
  19799 WAT       -35.4320  -76.4160   -0.0830 O         1 <0>         0.0000
  19800 WAT       -35.4320  -76.1660   -9.8330 O         1 <0>         0.0000
  19801 WAT       -35.4320  -76.1660   -9.5830 O         1 <0>         0.0000
  19802 WAT       -35.4320  -76.1660   -9.3330 O         1 <0>         0.0000
  19803 WAT       -35.4320  -76.1660   -9.0830 O         1 <0>         0.0000
  19804 WAT       -35.4320  -76.1660   -8.8330 O         1 <0>         0.0000
  19805 WAT       -35.4320  -76.1660   -8.5830 O         1 <0>         0.0000
  19806 WAT       -35.4320  -76.1660   -8.3330 O         1 <0>         0.0000
  19807 WAT       -35.4320  -76.1660   -8.0830 O         1 <0>         0.0000
  19808 WAT       -35.4320  -76.1660   -7.8330 O         1 <0>         0.0000
  19809 WAT       -35.4320  -76.1660   -7.5830 O         1 <0>         0.0000
  19810 WAT       -35.4320  -76.1660   -7.3330 O         1 <0>         0.0000
  19811 WAT       -35.4320  -76.1660   -7.0830 O         1 <0>         0.0000
  19812 WAT       -35.4320  -76.1660   -6.8330 O         1 <0>         0.0000
  19813 WAT       -35.4320  -76.1660   -6.5830 O         1 <0>         0.0000
  19814 WAT       -35.4320  -76.1660   -6.3330 O         1 <0>         0.0000
  19815 WAT       -35.4320  -76.1660   -6.0830 O         1 <0>         0.0000
  19816 WAT       -35.4320  -76.1660   -5.8330 O         1 <0>         0.0000
  19817 WAT       -35.4320  -76.1660   -5.5830 O         1 <0>         0.0000
  19818 WAT       -35.4320  -76.1660   -5.3330 O         1 <0>         0.0000
  19819 WAT       -35.4320  -76.1660   -5.0830 O         1 <0>         0.0000
  19820 WAT       -35.4320  -76.1660   -4.8330 O         1 <0>         0.0000
  19821 WAT       -35.4320  -76.1660   -4.5830 O         1 <0>         0.0000
  19822 WAT       -35.4320  -76.1660   -4.3330 O         1 <0>         0.0000
  19823 WAT       -35.4320  -76.1660   -4.0830 O         1 <0>         0.0001
  19824 WAT       -35.4320  -76.1660   -3.8330 O         1 <0>         0.0002
  19825 WAT       -35.4320  -76.1660   -3.5830 O         1 <0>         0.0003
  19826 WAT       -35.4320  -76.1660   -3.3330 O         1 <0>         0.0004
  19827 WAT       -35.4320  -76.1660   -3.0830 O         1 <0>         0.0003
  19828 WAT       -35.4320  -76.1660   -2.8330 O         1 <0>         0.0001
  19829 WAT       -35.4320  -76.1660   -2.5830 O         1 <0>         0.0000
  19830 WAT       -35.4320  -76.1660   -2.3330 O         1 <0>         0.0000
  19831 WAT       -35.4320  -76.1660   -2.0830 O         1 <0>         0.0000
  19832 WAT       -35.4320  -76.1660   -1.8330 O         1 <0>         0.0000
  19833 WAT       -35.4320  -76.1660   -1.5830 O         1 <0>         0.0000
  19834 WAT       -35.4320  -76.1660   -1.3330 O         1 <0>         0.0000
  19835 WAT       -35.4320  -76.1660   -1.0830 O         1 <0>         0.0000
  19836 WAT       -35.4320  -76.1660   -0.8330 O         1 <0>         0.0000
  19837 WAT       -35.4320  -76.1660   -0.5830 O         1 <0>         0.0000
  19838 WAT       -35.4320  -76.1660   -0.3330 O         1 <0>         0.0000
  19839 WAT       -35.4320  -76.1660   -0.0830 O         1 <0>         0.0000
  19840 WAT       -35.4320  -75.9160   -9.8330 O         1 <0>         0.0000
  19841 WAT       -35.4320  -75.9160   -9.5830 O         1 <0>         0.0000
  19842 WAT       -35.4320  -75.9160   -9.3330 O         1 <0>         0.0000
  19843 WAT       -35.4320  -75.9160   -9.0830 O         1 <0>         0.0000
  19844 WAT       -35.4320  -75.9160   -8.8330 O         1 <0>         0.0000
  19845 WAT       -35.4320  -75.9160   -8.5830 O         1 <0>         0.0000
  19846 WAT       -35.4320  -75.9160   -8.3330 O         1 <0>         0.0000
  19847 WAT       -35.4320  -75.9160   -8.0830 O         1 <0>         0.0000
  19848 WAT       -35.4320  -75.9160   -7.8330 O         1 <0>         0.0000
  19849 WAT       -35.4320  -75.9160   -7.5830 O         1 <0>         0.0000
  19850 WAT       -35.4320  -75.9160   -7.3330 O         1 <0>         0.0000
  19851 WAT       -35.4320  -75.9160   -7.0830 O         1 <0>         0.0000
  19852 WAT       -35.4320  -75.9160   -6.8330 O         1 <0>         0.0000
  19853 WAT       -35.4320  -75.9160   -6.5830 O         1 <0>         0.0000
  19854 WAT       -35.4320  -75.9160   -6.3330 O         1 <0>         0.0000
  19855 WAT       -35.4320  -75.9160   -6.0830 O         1 <0>         0.0000
  19856 WAT       -35.4320  -75.9160   -5.8330 O         1 <0>         0.0000
  19857 WAT       -35.4320  -75.9160   -5.5830 O         1 <0>         0.0000
  19858 WAT       -35.4320  -75.9160   -5.3330 O         1 <0>         0.0000
  19859 WAT       -35.4320  -75.9160   -5.0830 O         1 <0>         0.0000
  19860 WAT       -35.4320  -75.9160   -4.8330 O         1 <0>         0.0000
  19861 WAT       -35.4320  -75.9160   -4.5830 O         1 <0>         0.0000
  19862 WAT       -35.4320  -75.9160   -4.3330 O         1 <0>         0.0001
  19863 WAT       -35.4320  -75.9160   -4.0830 O         1 <0>         0.0003
  19864 WAT       -35.4320  -75.9160   -3.8330 O         1 <0>         0.0009
  19865 WAT       -35.4320  -75.9160   -3.5830 O         1 <0>         0.0014
  19866 WAT       -35.4320  -75.9160   -3.3330 O         1 <0>         0.0016
  19867 WAT       -35.4320  -75.9160   -3.0830 O         1 <0>         0.0011
  19868 WAT       -35.4320  -75.9160   -2.8330 O         1 <0>         0.0005
  19869 WAT       -35.4320  -75.9160   -2.5830 O         1 <0>         0.0001
  19870 WAT       -35.4320  -75.9160   -2.3330 O         1 <0>         0.0000
  19871 WAT       -35.4320  -75.9160   -2.0830 O         1 <0>         0.0000
  19872 WAT       -35.4320  -75.9160   -1.8330 O         1 <0>         0.0000
  19873 WAT       -35.4320  -75.9160   -1.5830 O         1 <0>         0.0000
  19874 WAT       -35.4320  -75.9160   -1.3330 O         1 <0>         0.0000
  19875 WAT       -35.4320  -75.9160   -1.0830 O         1 <0>         0.0000
  19876 WAT       -35.4320  -75.9160   -0.8330 O         1 <0>         0.0000
  19877 WAT       -35.4320  -75.9160   -0.5830 O         1 <0>         0.0000
  19878 WAT       -35.4320  -75.9160   -0.3330 O         1 <0>         0.0000
  19879 WAT       -35.4320  -75.9160   -0.0830 O         1 <0>         0.0000
  19880 WAT       -35.4320  -75.6660   -9.8330 O         1 <0>         0.0000
  19881 WAT       -35.4320  -75.6660   -9.5830 O         1 <0>         0.0000
  19882 WAT       -35.4320  -75.6660   -9.3330 O         1 <0>         0.0000
  19883 WAT       -35.4320  -75.6660   -9.0830 O         1 <0>         0.0000
  19884 WAT       -35.4320  -75.6660   -8.8330 O         1 <0>         0.0000
  19885 WAT       -35.4320  -75.6660   -8.5830 O         1 <0>         0.0000
  19886 WAT       -35.4320  -75.6660   -8.3330 O         1 <0>         0.0000
  19887 WAT       -35.4320  -75.6660   -8.0830 O         1 <0>         0.0000
  19888 WAT       -35.4320  -75.6660   -7.8330 O         1 <0>         0.0000
  19889 WAT       -35.4320  -75.6660   -7.5830 O         1 <0>         0.0000
  19890 WAT       -35.4320  -75.6660   -7.3330 O         1 <0>         0.0000
  19891 WAT       -35.4320  -75.6660   -7.0830 O         1 <0>         0.0000
  19892 WAT       -35.4320  -75.6660   -6.8330 O         1 <0>         0.0000
  19893 WAT       -35.4320  -75.6660   -6.5830 O         1 <0>         0.0000
  19894 WAT       -35.4320  -75.6660   -6.3330 O         1 <0>         0.0000
  19895 WAT       -35.4320  -75.6660   -6.0830 O         1 <0>         0.0000
  19896 WAT       -35.4320  -75.6660   -5.8330 O         1 <0>         0.0000
  19897 WAT       -35.4320  -75.6660   -5.5830 O         1 <0>         0.0000
  19898 WAT       -35.4320  -75.6660   -5.3330 O         1 <0>         0.0000
  19899 WAT       -35.4320  -75.6660   -5.0830 O         1 <0>         0.0000
  19900 WAT       -35.4320  -75.6660   -4.8330 O         1 <0>         0.0000
  19901 WAT       -35.4320  -75.6660   -4.5830 O         1 <0>         0.0001
  19902 WAT       -35.4320  -75.6660   -4.3330 O         1 <0>         0.0005
  19903 WAT       -35.4320  -75.6660   -4.0830 O         1 <0>         0.0016
  19904 WAT       -35.4320  -75.6660   -3.8330 O         1 <0>         0.0036
  19905 WAT       -35.4320  -75.6660   -3.5830 O         1 <0>         0.0054
  19906 WAT       -35.4320  -75.6660   -3.3330 O         1 <0>         0.0055
  19907 WAT       -35.4320  -75.6660   -3.0830 O         1 <0>         0.0038
  19908 WAT       -35.4320  -75.6660   -2.8330 O         1 <0>         0.0017
  19909 WAT       -35.4320  -75.6660   -2.5830 O         1 <0>         0.0004
  19910 WAT       -35.4320  -75.6660   -2.3330 O         1 <0>         0.0000
  19911 WAT       -35.4320  -75.6660   -2.0830 O         1 <0>         0.0000
  19912 WAT       -35.4320  -75.6660   -1.8330 O         1 <0>         0.0000
  19913 WAT       -35.4320  -75.6660   -1.5830 O         1 <0>         0.0000
  19914 WAT       -35.4320  -75.6660   -1.3330 O         1 <0>         0.0000
  19915 WAT       -35.4320  -75.6660   -1.0830 O         1 <0>         0.0000
  19916 WAT       -35.4320  -75.6660   -0.8330 O         1 <0>         0.0000
  19917 WAT       -35.4320  -75.6660   -0.5830 O         1 <0>         0.0000
  19918 WAT       -35.4320  -75.6660   -0.3330 O         1 <0>         0.0000
  19919 WAT       -35.4320  -75.6660   -0.0830 O         1 <0>         0.0000
  19920 WAT       -35.4320  -75.4160   -9.8330 O         1 <0>         0.0000
  19921 WAT       -35.4320  -75.4160   -9.5830 O         1 <0>         0.0000
  19922 WAT       -35.4320  -75.4160   -9.3330 O         1 <0>         0.0000
  19923 WAT       -35.4320  -75.4160   -9.0830 O         1 <0>         0.0000
  19924 WAT       -35.4320  -75.4160   -8.8330 O         1 <0>         0.0000
  19925 WAT       -35.4320  -75.4160   -8.5830 O         1 <0>         0.0000
  19926 WAT       -35.4320  -75.4160   -8.3330 O         1 <0>         0.0000
  19927 WAT       -35.4320  -75.4160   -8.0830 O         1 <0>         0.0000
  19928 WAT       -35.4320  -75.4160   -7.8330 O         1 <0>         0.0000
  19929 WAT       -35.4320  -75.4160   -7.5830 O         1 <0>         0.0000
  19930 WAT       -35.4320  -75.4160   -7.3330 O         1 <0>         0.0000
  19931 WAT       -35.4320  -75.4160   -7.0830 O         1 <0>         0.0000
  19932 WAT       -35.4320  -75.4160   -6.8330 O         1 <0>         0.0000
  19933 WAT       -35.4320  -75.4160   -6.5830 O         1 <0>         0.0000
  19934 WAT       -35.4320  -75.4160   -6.3330 O         1 <0>         0.0001
  19935 WAT       -35.4320  -75.4160   -6.0830 O         1 <0>         0.0001
  19936 WAT       -35.4320  -75.4160   -5.8330 O         1 <0>         0.0001
  19937 WAT       -35.4320  -75.4160   -5.5830 O         1 <0>         0.0001
  19938 WAT       -35.4320  -75.4160   -5.3330 O         1 <0>         0.0001
  19939 WAT       -35.4320  -75.4160   -5.0830 O         1 <0>         0.0001
  19940 WAT       -35.4320  -75.4160   -4.8330 O         1 <0>         0.0001
  19941 WAT       -35.4320  -75.4160   -4.5830 O         1 <0>         0.0006
  19942 WAT       -35.4320  -75.4160   -4.3330 O         1 <0>         0.0021
  19943 WAT       -35.4320  -75.4160   -4.0830 O         1 <0>         0.0058
  19944 WAT       -35.4320  -75.4160   -3.8330 O         1 <0>         0.0117
  19945 WAT       -35.4320  -75.4160   -3.5830 O         1 <0>         0.0167
  19946 WAT       -35.4320  -75.4160   -3.3330 O         1 <0>         0.0164
  19947 WAT       -35.4320  -75.4160   -3.0830 O         1 <0>         0.0110
  19948 WAT       -35.4320  -75.4160   -2.8330 O         1 <0>         0.0049
  19949 WAT       -35.4320  -75.4160   -2.5830 O         1 <0>         0.0013
  19950 WAT       -35.4320  -75.4160   -2.3330 O         1 <0>         0.0002
  19951 WAT       -35.4320  -75.4160   -2.0830 O         1 <0>         0.0000
  19952 WAT       -35.4320  -75.4160   -1.8330 O         1 <0>         0.0000
  19953 WAT       -35.4320  -75.4160   -1.5830 O         1 <0>         0.0000
  19954 WAT       -35.4320  -75.4160   -1.3330 O         1 <0>         0.0000
  19955 WAT       -35.4320  -75.4160   -1.0830 O         1 <0>         0.0000
  19956 WAT       -35.4320  -75.4160   -0.8330 O         1 <0>         0.0000
  19957 WAT       -35.4320  -75.4160   -0.5830 O         1 <0>         0.0000
  19958 WAT       -35.4320  -75.4160   -0.3330 O         1 <0>         0.0000
  19959 WAT       -35.4320  -75.4160   -0.0830 O         1 <0>         0.0000
  19960 WAT       -35.4320  -75.1660   -9.8330 O         1 <0>         0.0000
  19961 WAT       -35.4320  -75.1660   -9.5830 O         1 <0>         0.0000
  19962 WAT       -35.4320  -75.1660   -9.3330 O         1 <0>         0.0000
  19963 WAT       -35.4320  -75.1660   -9.0830 O         1 <0>         0.0000
  19964 WAT       -35.4320  -75.1660   -8.8330 O         1 <0>         0.0000
  19965 WAT       -35.4320  -75.1660   -8.5830 O         1 <0>         0.0000
  19966 WAT       -35.4320  -75.1660   -8.3330 O         1 <0>         0.0000
  19967 WAT       -35.4320  -75.1660   -8.0830 O         1 <0>         0.0000
  19968 WAT       -35.4320  -75.1660   -7.8330 O         1 <0>         0.0000
  19969 WAT       -35.4320  -75.1660   -7.5830 O         1 <0>         0.0000
  19970 WAT       -35.4320  -75.1660   -7.3330 O         1 <0>         0.0000
  19971 WAT       -35.4320  -75.1660   -7.0830 O         1 <0>         0.0000
  19972 WAT       -35.4320  -75.1660   -6.8330 O         1 <0>         0.0001
  19973 WAT       -35.4320  -75.1660   -6.5830 O         1 <0>         0.0004
  19974 WAT       -35.4320  -75.1660   -6.3330 O         1 <0>         0.0008
  19975 WAT       -35.4320  -75.1660   -6.0830 O         1 <0>         0.0012
  19976 WAT       -35.4320  -75.1660   -5.8330 O         1 <0>         0.0012
  19977 WAT       -35.4320  -75.1660   -5.5830 O         1 <0>         0.0011
  19978 WAT       -35.4320  -75.1660   -5.3330 O         1 <0>         0.0009
  19979 WAT       -35.4320  -75.1660   -5.0830 O         1 <0>         0.0007
  19980 WAT       -35.4320  -75.1660   -4.8330 O         1 <0>         0.0009
  19981 WAT       -35.4320  -75.1660   -4.5830 O         1 <0>         0.0020
  19982 WAT       -35.4320  -75.1660   -4.3330 O         1 <0>         0.0060
  19983 WAT       -35.4320  -75.1660   -4.0830 O         1 <0>         0.0153
  19984 WAT       -35.4320  -75.1660   -3.8330 O         1 <0>         0.0297
  19985 WAT       -35.4320  -75.1660   -3.5830 O         1 <0>         0.0417
  19986 WAT       -35.4320  -75.1660   -3.3330 O         1 <0>         0.0411
  19987 WAT       -35.4320  -75.1660   -3.0830 O         1 <0>         0.0280
  19988 WAT       -35.4320  -75.1660   -2.8330 O         1 <0>         0.0129
  19989 WAT       -35.4320  -75.1660   -2.5830 O         1 <0>         0.0038
  19990 WAT       -35.4320  -75.1660   -2.3330 O         1 <0>         0.0006
  19991 WAT       -35.4320  -75.1660   -2.0830 O         1 <0>         0.0000
  19992 WAT       -35.4320  -75.1660   -1.8330 O         1 <0>         0.0000
  19993 WAT       -35.4320  -75.1660   -1.5830 O         1 <0>         0.0000
  19994 WAT       -35.4320  -75.1660   -1.3330 O         1 <0>         0.0000
  19995 WAT       -35.4320  -75.1660   -1.0830 O         1 <0>         0.0000
  19996 WAT       -35.4320  -75.1660   -0.8330 O         1 <0>         0.0000
  19997 WAT       -35.4320  -75.1660   -0.5830 O         1 <0>         0.0000
  19998 WAT       -35.4320  -75.1660   -0.3330 O         1 <0>         0.0000
  19999 WAT       -35.4320  -75.1660   -0.0830 O         1 <0>         0.0000
  20000 WAT       -35.4320  -74.9160   -9.8330 O         1 <0>         0.0000
  20001 WAT       -35.4320  -74.9160   -9.5830 O         1 <0>         0.0000
  20002 WAT       -35.4320  -74.9160   -9.3330 O         1 <0>         0.0000
  20003 WAT       -35.4320  -74.9160   -9.0830 O         1 <0>         0.0000
  20004 WAT       -35.4320  -74.9160   -8.8330 O         1 <0>         0.0000
  20005 WAT       -35.4320  -74.9160   -8.5830 O         1 <0>         0.0000
  20006 WAT       -35.4320  -74.9160   -8.3330 O         1 <0>         0.0000
  20007 WAT       -35.4320  -74.9160   -8.0830 O         1 <0>         0.0000
  20008 WAT       -35.4320  -74.9160   -7.8330 O         1 <0>         0.0000
  20009 WAT       -35.4320  -74.9160   -7.5830 O         1 <0>         0.0000
  20010 WAT       -35.4320  -74.9160   -7.3330 O         1 <0>         0.0000
  20011 WAT       -35.4320  -74.9160   -7.0830 O         1 <0>         0.0001
  20012 WAT       -35.4320  -74.9160   -6.8330 O         1 <0>         0.0006
  20013 WAT       -35.4320  -74.9160   -6.5830 O         1 <0>         0.0021
  20014 WAT       -35.4320  -74.9160   -6.3330 O         1 <0>         0.0044
  20015 WAT       -35.4320  -74.9160   -6.0830 O         1 <0>         0.0062
  20016 WAT       -35.4320  -74.9160   -5.8330 O         1 <0>         0.0066
  20017 WAT       -35.4320  -74.9160   -5.5830 O         1 <0>         0.0058
  20018 WAT       -35.4320  -74.9160   -5.3330 O         1 <0>         0.0047
  20019 WAT       -35.4320  -74.9160   -5.0830 O         1 <0>         0.0039
  20020 WAT       -35.4320  -74.9160   -4.8330 O         1 <0>         0.0038
  20021 WAT       -35.4320  -74.9160   -4.5830 O         1 <0>         0.0058
  20022 WAT       -35.4320  -74.9160   -4.3330 O         1 <0>         0.0131
  20023 WAT       -35.4320  -74.9160   -4.0830 O         1 <0>         0.0307
  20024 WAT       -35.4320  -74.9160   -3.8330 O         1 <0>         0.0590
  20025 WAT       -35.4320  -74.9160   -3.5830 O         1 <0>         0.0841
  20026 WAT       -35.4320  -74.9160   -3.3330 O         1 <0>         0.0850
  20027 WAT       -35.4320  -74.9160   -3.0830 O         1 <0>         0.0599
  20028 WAT       -35.4320  -74.9160   -2.8330 O         1 <0>         0.0289
  20029 WAT       -35.4320  -74.9160   -2.5830 O         1 <0>         0.0092
  20030 WAT       -35.4320  -74.9160   -2.3330 O         1 <0>         0.0017
  20031 WAT       -35.4320  -74.9160   -2.0830 O         1 <0>         0.0001
  20032 WAT       -35.4320  -74.9160   -1.8330 O         1 <0>         0.0000
  20033 WAT       -35.4320  -74.9160   -1.5830 O         1 <0>         0.0000
  20034 WAT       -35.4320  -74.9160   -1.3330 O         1 <0>         0.0000
  20035 WAT       -35.4320  -74.9160   -1.0830 O         1 <0>         0.0000
  20036 WAT       -35.4320  -74.9160   -0.8330 O         1 <0>         0.0000
  20037 WAT       -35.4320  -74.9160   -0.5830 O         1 <0>         0.0000
  20038 WAT       -35.4320  -74.9160   -0.3330 O         1 <0>         0.0000
  20039 WAT       -35.4320  -74.9160   -0.0830 O         1 <0>         0.0000
  20040 WAT       -35.4320  -74.6660   -9.8330 O         1 <0>         0.0000
  20041 WAT       -35.4320  -74.6660   -9.5830 O         1 <0>         0.0000
  20042 WAT       -35.4320  -74.6660   -9.3330 O         1 <0>         0.0000
  20043 WAT       -35.4320  -74.6660   -9.0830 O         1 <0>         0.0000
  20044 WAT       -35.4320  -74.6660   -8.8330 O         1 <0>         0.0000
  20045 WAT       -35.4320  -74.6660   -8.5830 O         1 <0>         0.0000
  20046 WAT       -35.4320  -74.6660   -8.3330 O         1 <0>         0.0000
  20047 WAT       -35.4320  -74.6660   -8.0830 O         1 <0>         0.0000
  20048 WAT       -35.4320  -74.6660   -7.8330 O         1 <0>         0.0000
  20049 WAT       -35.4320  -74.6660   -7.5830 O         1 <0>         0.0000
  20050 WAT       -35.4320  -74.6660   -7.3330 O         1 <0>         0.0001
  20051 WAT       -35.4320  -74.6660   -7.0830 O         1 <0>         0.0005
  20052 WAT       -35.4320  -74.6660   -6.8330 O         1 <0>         0.0023
  20053 WAT       -35.4320  -74.6660   -6.5830 O         1 <0>         0.0068
  20054 WAT       -35.4320  -74.6660   -6.3330 O         1 <0>         0.0138
  20055 WAT       -35.4320  -74.6660   -6.0830 O         1 <0>         0.0198
  20056 WAT       -35.4320  -74.6660   -5.8330 O         1 <0>         0.0215
  20057 WAT       -35.4320  -74.6660   -5.5830 O         1 <0>         0.0193
  20058 WAT       -35.4320  -74.6660   -5.3330 O         1 <0>         0.0162
  20059 WAT       -35.4320  -74.6660   -5.0830 O         1 <0>         0.0138
  20060 WAT       -35.4320  -74.6660   -4.8330 O         1 <0>         0.0130
  20061 WAT       -35.4320  -74.6660   -4.5830 O         1 <0>         0.0150
  20062 WAT       -35.4320  -74.6660   -4.3330 O         1 <0>         0.0250
  20063 WAT       -35.4320  -74.6660   -4.0830 O         1 <0>         0.0508
  20064 WAT       -35.4320  -74.6660   -3.8330 O         1 <0>         0.0950
  20065 WAT       -35.4320  -74.6660   -3.5830 O         1 <0>         0.1376
  20066 WAT       -35.4320  -74.6660   -3.3330 O         1 <0>         0.1436
  20067 WAT       -35.4320  -74.6660   -3.0830 O         1 <0>         0.1048
  20068 WAT       -35.4320  -74.6660   -2.8330 O         1 <0>         0.0528
  20069 WAT       -35.4320  -74.6660   -2.5830 O         1 <0>         0.0179
  20070 WAT       -35.4320  -74.6660   -2.3330 O         1 <0>         0.0037
  20071 WAT       -35.4320  -74.6660   -2.0830 O         1 <0>         0.0004
  20072 WAT       -35.4320  -74.6660   -1.8330 O         1 <0>         0.0000
  20073 WAT       -35.4320  -74.6660   -1.5830 O         1 <0>         0.0000
  20074 WAT       -35.4320  -74.6660   -1.3330 O         1 <0>         0.0000
  20075 WAT       -35.4320  -74.6660   -1.0830 O         1 <0>         0.0000
  20076 WAT       -35.4320  -74.6660   -0.8330 O         1 <0>         0.0000
  20077 WAT       -35.4320  -74.6660   -0.5830 O         1 <0>         0.0000
  20078 WAT       -35.4320  -74.6660   -0.3330 O         1 <0>         0.0000
  20079 WAT       -35.4320  -74.6660   -0.0830 O         1 <0>         0.0000
  20080 WAT       -35.4320  -74.4160   -9.8330 O         1 <0>         0.0000
  20081 WAT       -35.4320  -74.4160   -9.5830 O         1 <0>         0.0000
  20082 WAT       -35.4320  -74.4160   -9.3330 O         1 <0>         0.0000
  20083 WAT       -35.4320  -74.4160   -9.0830 O         1 <0>         0.0000
  20084 WAT       -35.4320  -74.4160   -8.8330 O         1 <0>         0.0000
  20085 WAT       -35.4320  -74.4160   -8.5830 O         1 <0>         0.0000
  20086 WAT       -35.4320  -74.4160   -8.3330 O         1 <0>         0.0000
  20087 WAT       -35.4320  -74.4160   -8.0830 O         1 <0>         0.0000
  20088 WAT       -35.4320  -74.4160   -7.8330 O         1 <0>         0.0000
  20089 WAT       -35.4320  -74.4160   -7.5830 O         1 <0>         0.0000
  20090 WAT       -35.4320  -74.4160   -7.3330 O         1 <0>         0.0002
  20091 WAT       -35.4320  -74.4160   -7.0830 O         1 <0>         0.0013
  20092 WAT       -35.4320  -74.4160   -6.8330 O         1 <0>         0.0052
  20093 WAT       -35.4320  -74.4160   -6.5830 O         1 <0>         0.0148
  20094 WAT       -35.4320  -74.4160   -6.3330 O         1 <0>         0.0295
  20095 WAT       -35.4320  -74.4160   -6.0830 O         1 <0>         0.0425
  20096 WAT       -35.4320  -74.4160   -5.8330 O         1 <0>         0.0472
  20097 WAT       -35.4320  -74.4160   -5.5830 O         1 <0>         0.0441
  20098 WAT       -35.4320  -74.4160   -5.3330 O         1 <0>         0.0391
  20099 WAT       -35.4320  -74.4160   -5.0830 O         1 <0>         0.0359
  20100 WAT       -35.4320  -74.4160   -4.8330 O         1 <0>         0.0345
  20101 WAT       -35.4320  -74.4160   -4.5830 O         1 <0>         0.0358
  20102 WAT       -35.4320  -74.4160   -4.3330 O         1 <0>         0.0453
  20103 WAT       -35.4320  -74.4160   -4.0830 O         1 <0>         0.0741
  20104 WAT       -35.4320  -74.4160   -3.8330 O         1 <0>         0.1280
  20105 WAT       -35.4320  -74.4160   -3.5830 O         1 <0>         0.1846
  20106 WAT       -35.4320  -74.4160   -3.3330 O         1 <0>         0.1964
  20107 WAT       -35.4320  -74.4160   -3.0830 O         1 <0>         0.1474
  20108 WAT       -35.4320  -74.4160   -2.8330 O         1 <0>         0.0768
  20109 WAT       -35.4320  -74.4160   -2.5830 O         1 <0>         0.0272
  20110 WAT       -35.4320  -74.4160   -2.3330 O         1 <0>         0.0062
  20111 WAT       -35.4320  -74.4160   -2.0830 O         1 <0>         0.0007
  20112 WAT       -35.4320  -74.4160   -1.8330 O         1 <0>         0.0000
  20113 WAT       -35.4320  -74.4160   -1.5830 O         1 <0>         0.0000
  20114 WAT       -35.4320  -74.4160   -1.3330 O         1 <0>         0.0000
  20115 WAT       -35.4320  -74.4160   -1.0830 O         1 <0>         0.0000
  20116 WAT       -35.4320  -74.4160   -0.8330 O         1 <0>         0.0000
  20117 WAT       -35.4320  -74.4160   -0.5830 O         1 <0>         0.0000
  20118 WAT       -35.4320  -74.4160   -0.3330 O         1 <0>         0.0000
  20119 WAT       -35.4320  -74.4160   -0.0830 O         1 <0>         0.0000
  20120 WAT       -35.4320  -74.1660   -9.8330 O         1 <0>         0.0000
  20121 WAT       -35.4320  -74.1660   -9.5830 O         1 <0>         0.0000
  20122 WAT       -35.4320  -74.1660   -9.3330 O         1 <0>         0.0000
  20123 WAT       -35.4320  -74.1660   -9.0830 O         1 <0>         0.0000
  20124 WAT       -35.4320  -74.1660   -8.8330 O         1 <0>         0.0000
  20125 WAT       -35.4320  -74.1660   -8.5830 O         1 <0>         0.0000
  20126 WAT       -35.4320  -74.1660   -8.3330 O         1 <0>         0.0000
  20127 WAT       -35.4320  -74.1660   -8.0830 O         1 <0>         0.0000
  20128 WAT       -35.4320  -74.1660   -7.8330 O         1 <0>         0.0000
  20129 WAT       -35.4320  -74.1660   -7.5830 O         1 <0>         0.0002
  20130 WAT       -35.4320  -74.1660   -7.3330 O         1 <0>         0.0008
  20131 WAT       -35.4320  -74.1660   -7.0830 O         1 <0>         0.0032
  20132 WAT       -35.4320  -74.1660   -6.8330 O         1 <0>         0.0098
  20133 WAT       -35.4320  -74.1660   -6.5830 O         1 <0>         0.0244
  20134 WAT       -35.4320  -74.1660   -6.3330 O         1 <0>         0.0460
  20135 WAT       -35.4320  -74.1660   -6.0830 O         1 <0>         0.0660
  20136 WAT       -35.4320  -74.1660   -5.8330 O         1 <0>         0.0747
  20137 WAT       -35.4320  -74.1660   -5.5830 O         1 <0>         0.0728
  20138 WAT       -35.4320  -74.1660   -5.3330 O         1 <0>         0.0696
  20139 WAT       -35.4320  -74.1660   -5.0830 O         1 <0>         0.0703
  20140 WAT       -35.4320  -74.1660   -4.8330 O         1 <0>         0.0723
  20141 WAT       -35.4320  -74.1660   -4.5830 O         1 <0>         0.0731
  20142 WAT       -35.4320  -74.1660   -4.3330 O         1 <0>         0.0772
  20143 WAT       -35.4320  -74.1660   -4.0830 O         1 <0>         0.0981
  20144 WAT       -35.4320  -74.1660   -3.8330 O         1 <0>         0.1458
  20145 WAT       -35.4320  -74.1660   -3.5830 O         1 <0>         0.2009
  20146 WAT       -35.4320  -74.1660   -3.3330 O         1 <0>         0.2139
  20147 WAT       -35.4320  -74.1660   -3.0830 O         1 <0>         0.1632
  20148 WAT       -35.4320  -74.1660   -2.8330 O         1 <0>         0.0871
  20149 WAT       -35.4320  -74.1660   -2.5830 O         1 <0>         0.0319
  20150 WAT       -35.4320  -74.1660   -2.3330 O         1 <0>         0.0076
  20151 WAT       -35.4320  -74.1660   -2.0830 O         1 <0>         0.0010
  20152 WAT       -35.4320  -74.1660   -1.8330 O         1 <0>         0.0001
  20153 WAT       -35.4320  -74.1660   -1.5830 O         1 <0>         0.0000
  20154 WAT       -35.4320  -74.1660   -1.3330 O         1 <0>         0.0000
  20155 WAT       -35.4320  -74.1660   -1.0830 O         1 <0>         0.0000
  20156 WAT       -35.4320  -74.1660   -0.8330 O         1 <0>         0.0000
  20157 WAT       -35.4320  -74.1660   -0.5830 O         1 <0>         0.0000
  20158 WAT       -35.4320  -74.1660   -0.3330 O         1 <0>         0.0000
  20159 WAT       -35.4320  -74.1660   -0.0830 O         1 <0>         0.0000
  20160 WAT       -35.4320  -73.9160   -9.8330 O         1 <0>         0.0000
  20161 WAT       -35.4320  -73.9160   -9.5830 O         1 <0>         0.0000
  20162 WAT       -35.4320  -73.9160   -9.3330 O         1 <0>         0.0000
  20163 WAT       -35.4320  -73.9160   -9.0830 O         1 <0>         0.0000
  20164 WAT       -35.4320  -73.9160   -8.8330 O         1 <0>         0.0000
  20165 WAT       -35.4320  -73.9160   -8.5830 O         1 <0>         0.0000
  20166 WAT       -35.4320  -73.9160   -8.3330 O         1 <0>         0.0000
  20167 WAT       -35.4320  -73.9160   -8.0830 O         1 <0>         0.0000
  20168 WAT       -35.4320  -73.9160   -7.8330 O         1 <0>         0.0001
  20169 WAT       -35.4320  -73.9160   -7.5830 O         1 <0>         0.0008
  20170 WAT       -35.4320  -73.9160   -7.3330 O         1 <0>         0.0030
  20171 WAT       -35.4320  -73.9160   -7.0830 O         1 <0>         0.0080
  20172 WAT       -35.4320  -73.9160   -6.8330 O         1 <0>         0.0174
  20173 WAT       -35.4320  -73.9160   -6.5830 O         1 <0>         0.0338
  20174 WAT       -35.4320  -73.9160   -6.3330 O         1 <0>         0.0565
  20175 WAT       -35.4320  -73.9160   -6.0830 O         1 <0>         0.0778
  20176 WAT       -35.4320  -73.9160   -5.8330 O         1 <0>         0.0883
  20177 WAT       -35.4320  -73.9160   -5.5830 O         1 <0>         0.0898
  20178 WAT       -35.4320  -73.9160   -5.3330 O         1 <0>         0.0938
  20179 WAT       -35.4320  -73.9160   -5.0830 O         1 <0>         0.1055
  20180 WAT       -35.4320  -73.9160   -4.8330 O         1 <0>         0.1177
  20181 WAT       -35.4320  -73.9160   -4.5830 O         1 <0>         0.1199
  20182 WAT       -35.4320  -73.9160   -4.3330 O         1 <0>         0.1135
  20183 WAT       -35.4320  -73.9160   -4.0830 O         1 <0>         0.1148
  20184 WAT       -35.4320  -73.9160   -3.8330 O         1 <0>         0.1388
  20185 WAT       -35.4320  -73.9160   -3.5830 O         1 <0>         0.1740
  20186 WAT       -35.4320  -73.9160   -3.3330 O         1 <0>         0.1809
  20187 WAT       -35.4320  -73.9160   -3.0830 O         1 <0>         0.1387
  20188 WAT       -35.4320  -73.9160   -2.8330 O         1 <0>         0.0752
  20189 WAT       -35.4320  -73.9160   -2.5830 O         1 <0>         0.0282
  20190 WAT       -35.4320  -73.9160   -2.3330 O         1 <0>         0.0070
  20191 WAT       -35.4320  -73.9160   -2.0830 O         1 <0>         0.0010
  20192 WAT       -35.4320  -73.9160   -1.8330 O         1 <0>         0.0001
  20193 WAT       -35.4320  -73.9160   -1.5830 O         1 <0>         0.0000
  20194 WAT       -35.4320  -73.9160   -1.3330 O         1 <0>         0.0000
  20195 WAT       -35.4320  -73.9160   -1.0830 O         1 <0>         0.0000
  20196 WAT       -35.4320  -73.9160   -0.8330 O         1 <0>         0.0000
  20197 WAT       -35.4320  -73.9160   -0.5830 O         1 <0>         0.0000
  20198 WAT       -35.4320  -73.9160   -0.3330 O         1 <0>         0.0000
  20199 WAT       -35.4320  -73.9160   -0.0830 O         1 <0>         0.0000
  20200 WAT       -35.4320  -73.6660   -9.8330 O         1 <0>         0.0000
  20201 WAT       -35.4320  -73.6660   -9.5830 O         1 <0>         0.0000
  20202 WAT       -35.4320  -73.6660   -9.3330 O         1 <0>         0.0000
  20203 WAT       -35.4320  -73.6660   -9.0830 O         1 <0>         0.0000
  20204 WAT       -35.4320  -73.6660   -8.8330 O         1 <0>         0.0000
  20205 WAT       -35.4320  -73.6660   -8.5830 O         1 <0>         0.0000
  20206 WAT       -35.4320  -73.6660   -8.3330 O         1 <0>         0.0000
  20207 WAT       -35.4320  -73.6660   -8.0830 O         1 <0>         0.0001
  20208 WAT       -35.4320  -73.6660   -7.8330 O         1 <0>         0.0006
  20209 WAT       -35.4320  -73.6660   -7.5830 O         1 <0>         0.0028
  20210 WAT       -35.4320  -73.6660   -7.3330 O         1 <0>         0.0085
  20211 WAT       -35.4320  -73.6660   -7.0830 O         1 <0>         0.0184
  20212 WAT       -35.4320  -73.6660   -6.8330 O         1 <0>         0.0307
  20213 WAT       -35.4320  -73.6660   -6.5830 O         1 <0>         0.0442
  20214 WAT       -35.4320  -73.6660   -6.3330 O         1 <0>         0.0593
  20215 WAT       -35.4320  -73.6660   -6.0830 O         1 <0>         0.0733
  20216 WAT       -35.4320  -73.6660   -5.8330 O         1 <0>         0.0808
  20217 WAT       -35.4320  -73.6660   -5.5830 O         1 <0>         0.0847
  20218 WAT       -35.4320  -73.6660   -5.3330 O         1 <0>         0.0971
  20219 WAT       -35.4320  -73.6660   -5.0830 O         1 <0>         0.1221
  20220 WAT       -35.4320  -73.6660   -4.8330 O         1 <0>         0.1462
  20221 WAT       -35.4320  -73.6660   -4.5830 O         1 <0>         0.1508
  20222 WAT       -35.4320  -73.6660   -4.3330 O         1 <0>         0.1334
  20223 WAT       -35.4320  -73.6660   -4.0830 O         1 <0>         0.1129
  20224 WAT       -35.4320  -73.6660   -3.8330 O         1 <0>         0.1087
  20225 WAT       -35.4320  -73.6660   -3.5830 O         1 <0>         0.1179
  20226 WAT       -35.4320  -73.6660   -3.3330 O         1 <0>         0.1163
  20227 WAT       -35.4320  -73.6660   -3.0830 O         1 <0>         0.0882
  20228 WAT       -35.4320  -73.6660   -2.8330 O         1 <0>         0.0480
  20229 WAT       -35.4320  -73.6660   -2.5830 O         1 <0>         0.0182
  20230 WAT       -35.4320  -73.6660   -2.3330 O         1 <0>         0.0046
  20231 WAT       -35.4320  -73.6660   -2.0830 O         1 <0>         0.0007
  20232 WAT       -35.4320  -73.6660   -1.8330 O         1 <0>         0.0001
  20233 WAT       -35.4320  -73.6660   -1.5830 O         1 <0>         0.0000
  20234 WAT       -35.4320  -73.6660   -1.3330 O         1 <0>         0.0000
  20235 WAT       -35.4320  -73.6660   -1.0830 O         1 <0>         0.0000
  20236 WAT       -35.4320  -73.6660   -0.8330 O         1 <0>         0.0000
  20237 WAT       -35.4320  -73.6660   -0.5830 O         1 <0>         0.0000
  20238 WAT       -35.4320  -73.6660   -0.3330 O         1 <0>         0.0000
  20239 WAT       -35.4320  -73.6660   -0.0830 O         1 <0>         0.0000
  20240 WAT       -35.4320  -73.4160   -9.8330 O         1 <0>         0.0000
  20241 WAT       -35.4320  -73.4160   -9.5830 O         1 <0>         0.0000
  20242 WAT       -35.4320  -73.4160   -9.3330 O         1 <0>         0.0000
  20243 WAT       -35.4320  -73.4160   -9.0830 O         1 <0>         0.0000
  20244 WAT       -35.4320  -73.4160   -8.8330 O         1 <0>         0.0000
  20245 WAT       -35.4320  -73.4160   -8.5830 O         1 <0>         0.0000
  20246 WAT       -35.4320  -73.4160   -8.3330 O         1 <0>         0.0000
  20247 WAT       -35.4320  -73.4160   -8.0830 O         1 <0>         0.0002
  20248 WAT       -35.4320  -73.4160   -7.8330 O         1 <0>         0.0015
  20249 WAT       -35.4320  -73.4160   -7.5830 O         1 <0>         0.0068
  20250 WAT       -35.4320  -73.4160   -7.3330 O         1 <0>         0.0187
  20251 WAT       -35.4320  -73.4160   -7.0830 O         1 <0>         0.0356
  20252 WAT       -35.4320  -73.4160   -6.8330 O         1 <0>         0.0502
  20253 WAT       -35.4320  -73.4160   -6.5830 O         1 <0>         0.0565
  20254 WAT       -35.4320  -73.4160   -6.3330 O         1 <0>         0.0574
  20255 WAT       -35.4320  -73.4160   -6.0830 O         1 <0>         0.0579
  20256 WAT       -35.4320  -73.4160   -5.8330 O         1 <0>         0.0582
  20257 WAT       -35.4320  -73.4160   -5.5830 O         1 <0>         0.0615
  20258 WAT       -35.4320  -73.4160   -5.3330 O         1 <0>         0.0770
  20259 WAT       -35.4320  -73.4160   -5.0830 O         1 <0>         0.1068
  20260 WAT       -35.4320  -73.4160   -4.8330 O         1 <0>         0.1357
  20261 WAT       -35.4320  -73.4160   -4.5830 O         1 <0>         0.1414
  20262 WAT       -35.4320  -73.4160   -4.3330 O         1 <0>         0.1196
  20263 WAT       -35.4320  -73.4160   -4.0830 O         1 <0>         0.0888
  20264 WAT       -35.4320  -73.4160   -3.8330 O         1 <0>         0.0687
  20265 WAT       -35.4320  -73.4160   -3.5830 O         1 <0>         0.0618
  20266 WAT       -35.4320  -73.4160   -3.3330 O         1 <0>         0.0558
  20267 WAT       -35.4320  -73.4160   -3.0830 O         1 <0>         0.0410
  20268 WAT       -35.4320  -73.4160   -2.8330 O         1 <0>         0.0220
  20269 WAT       -35.4320  -73.4160   -2.5830 O         1 <0>         0.0082
  20270 WAT       -35.4320  -73.4160   -2.3330 O         1 <0>         0.0021
  20271 WAT       -35.4320  -73.4160   -2.0830 O         1 <0>         0.0004
  20272 WAT       -35.4320  -73.4160   -1.8330 O         1 <0>         0.0001
  20273 WAT       -35.4320  -73.4160   -1.5830 O         1 <0>         0.0000
  20274 WAT       -35.4320  -73.4160   -1.3330 O         1 <0>         0.0000
  20275 WAT       -35.4320  -73.4160   -1.0830 O         1 <0>         0.0000
  20276 WAT       -35.4320  -73.4160   -0.8330 O         1 <0>         0.0000
  20277 WAT       -35.4320  -73.4160   -0.5830 O         1 <0>         0.0000
  20278 WAT       -35.4320  -73.4160   -0.3330 O         1 <0>         0.0000
  20279 WAT       -35.4320  -73.4160   -0.0830 O         1 <0>         0.0000
  20280 WAT       -35.4320  -73.1660   -9.8330 O         1 <0>         0.0000
  20281 WAT       -35.4320  -73.1660   -9.5830 O         1 <0>         0.0000
  20282 WAT       -35.4320  -73.1660   -9.3330 O         1 <0>         0.0000
  20283 WAT       -35.4320  -73.1660   -9.0830 O         1 <0>         0.0000
  20284 WAT       -35.4320  -73.1660   -8.8330 O         1 <0>         0.0000
  20285 WAT       -35.4320  -73.1660   -8.5830 O         1 <0>         0.0000
  20286 WAT       -35.4320  -73.1660   -8.3330 O         1 <0>         0.0000
  20287 WAT       -35.4320  -73.1660   -8.0830 O         1 <0>         0.0004
  20288 WAT       -35.4320  -73.1660   -7.8330 O         1 <0>         0.0035
  20289 WAT       -35.4320  -73.1660   -7.5830 O         1 <0>         0.0139
  20290 WAT       -35.4320  -73.1660   -7.3330 O         1 <0>         0.0346
  20291 WAT       -35.4320  -73.1660   -7.0830 O         1 <0>         0.0588
  20292 WAT       -35.4320  -73.1660   -6.8330 O         1 <0>         0.0726
  20293 WAT       -35.4320  -73.1660   -6.5830 O         1 <0>         0.0684
  20294 WAT       -35.4320  -73.1660   -6.3330 O         1 <0>         0.0537
  20295 WAT       -35.4320  -73.1660   -6.0830 O         1 <0>         0.0409
  20296 WAT       -35.4320  -73.1660   -5.8330 O         1 <0>         0.0338
  20297 WAT       -35.4320  -73.1660   -5.5830 O         1 <0>         0.0339
  20298 WAT       -35.4320  -73.1660   -5.3330 O         1 <0>         0.0456
  20299 WAT       -35.4320  -73.1660   -5.0830 O         1 <0>         0.0688
  20300 WAT       -35.4320  -73.1660   -4.8330 O         1 <0>         0.0916
  20301 WAT       -35.4320  -73.1660   -4.5830 O         1 <0>         0.0966
  20302 WAT       -35.4320  -73.1660   -4.3330 O         1 <0>         0.0793
  20303 WAT       -35.4320  -73.1660   -4.0830 O         1 <0>         0.0534
  20304 WAT       -35.4320  -73.1660   -3.8330 O         1 <0>         0.0340
  20305 WAT       -35.4320  -73.1660   -3.5830 O         1 <0>         0.0246
  20306 WAT       -35.4320  -73.1660   -3.3330 O         1 <0>         0.0194
  20307 WAT       -35.4320  -73.1660   -3.0830 O         1 <0>         0.0135
  20308 WAT       -35.4320  -73.1660   -2.8330 O         1 <0>         0.0070
  20309 WAT       -35.4320  -73.1660   -2.5830 O         1 <0>         0.0025
  20310 WAT       -35.4320  -73.1660   -2.3330 O         1 <0>         0.0006
  20311 WAT       -35.4320  -73.1660   -2.0830 O         1 <0>         0.0002
  20312 WAT       -35.4320  -73.1660   -1.8330 O         1 <0>         0.0001
  20313 WAT       -35.4320  -73.1660   -1.5830 O         1 <0>         0.0001
  20314 WAT       -35.4320  -73.1660   -1.3330 O         1 <0>         0.0000
  20315 WAT       -35.4320  -73.1660   -1.0830 O         1 <0>         0.0000
  20316 WAT       -35.4320  -73.1660   -0.8330 O         1 <0>         0.0000
  20317 WAT       -35.4320  -73.1660   -0.5830 O         1 <0>         0.0000
  20318 WAT       -35.4320  -73.1660   -0.3330 O         1 <0>         0.0000
  20319 WAT       -35.4320  -73.1660   -0.0830 O         1 <0>         0.0000
  20320 WAT       -35.4320  -72.9160   -9.8330 O         1 <0>         0.0000
  20321 WAT       -35.4320  -72.9160   -9.5830 O         1 <0>         0.0000
  20322 WAT       -35.4320  -72.9160   -9.3330 O         1 <0>         0.0000
  20323 WAT       -35.4320  -72.9160   -9.0830 O         1 <0>         0.0000
  20324 WAT       -35.4320  -72.9160   -8.8330 O         1 <0>         0.0000
  20325 WAT       -35.4320  -72.9160   -8.5830 O         1 <0>         0.0000
  20326 WAT       -35.4320  -72.9160   -8.3330 O         1 <0>         0.0000
  20327 WAT       -35.4320  -72.9160   -8.0830 O         1 <0>         0.0010
  20328 WAT       -35.4320  -72.9160   -7.8330 O         1 <0>         0.0073
  20329 WAT       -35.4320  -72.9160   -7.5830 O         1 <0>         0.0262
  20330 WAT       -35.4320  -72.9160   -7.3330 O         1 <0>         0.0577
  20331 WAT       -35.4320  -72.9160   -7.0830 O         1 <0>         0.0868
  20332 WAT       -35.4320  -72.9160   -6.8330 O         1 <0>         0.0941
  20333 WAT       -35.4320  -72.9160   -6.5830 O         1 <0>         0.0765
  20334 WAT       -35.4320  -72.9160   -6.3330 O         1 <0>         0.0493
  20335 WAT       -35.4320  -72.9160   -6.0830 O         1 <0>         0.0280
  20336 WAT       -35.4320  -72.9160   -5.8330 O         1 <0>         0.0168
  20337 WAT       -35.4320  -72.9160   -5.5830 O         1 <0>         0.0141
  20338 WAT       -35.4320  -72.9160   -5.3330 O         1 <0>         0.0195
  20339 WAT       -35.4320  -72.9160   -5.0830 O         1 <0>         0.0317
  20340 WAT       -35.4320  -72.9160   -4.8330 O         1 <0>         0.0441
  20341 WAT       -35.4320  -72.9160   -4.5830 O         1 <0>         0.0470
  20342 WAT       -35.4320  -72.9160   -4.3330 O         1 <0>         0.0377
  20343 WAT       -35.4320  -72.9160   -4.0830 O         1 <0>         0.0235
  20344 WAT       -35.4320  -72.9160   -3.8330 O         1 <0>         0.0126
  20345 WAT       -35.4320  -72.9160   -3.5830 O         1 <0>         0.0071
  20346 WAT       -35.4320  -72.9160   -3.3330 O         1 <0>         0.0047
  20347 WAT       -35.4320  -72.9160   -3.0830 O         1 <0>         0.0030
  20348 WAT       -35.4320  -72.9160   -2.8330 O         1 <0>         0.0014
  20349 WAT       -35.4320  -72.9160   -2.5830 O         1 <0>         0.0005
  20350 WAT       -35.4320  -72.9160   -2.3330 O         1 <0>         0.0001
  20351 WAT       -35.4320  -72.9160   -2.0830 O         1 <0>         0.0001
  20352 WAT       -35.4320  -72.9160   -1.8330 O         1 <0>         0.0001
  20353 WAT       -35.4320  -72.9160   -1.5830 O         1 <0>         0.0000
  20354 WAT       -35.4320  -72.9160   -1.3330 O         1 <0>         0.0000
  20355 WAT       -35.4320  -72.9160   -1.0830 O         1 <0>         0.0000
  20356 WAT       -35.4320  -72.9160   -0.8330 O         1 <0>         0.0000
  20357 WAT       -35.4320  -72.9160   -0.5830 O         1 <0>         0.0000
  20358 WAT       -35.4320  -72.9160   -0.3330 O         1 <0>         0.0000
  20359 WAT       -35.4320  -72.9160   -0.0830 O         1 <0>         0.0000
  20360 WAT       -35.4320  -72.6660   -9.8330 O         1 <0>         0.0000
  20361 WAT       -35.4320  -72.6660   -9.5830 O         1 <0>         0.0000
  20362 WAT       -35.4320  -72.6660   -9.3330 O         1 <0>         0.0000
  20363 WAT       -35.4320  -72.6660   -9.0830 O         1 <0>         0.0000
  20364 WAT       -35.4320  -72.6660   -8.8330 O         1 <0>         0.0000
  20365 WAT       -35.4320  -72.6660   -8.5830 O         1 <0>         0.0000
  20366 WAT       -35.4320  -72.6660   -8.3330 O         1 <0>         0.0001
  20367 WAT       -35.4320  -72.6660   -8.0830 O         1 <0>         0.0020
  20368 WAT       -35.4320  -72.6660   -7.8330 O         1 <0>         0.0142
  20369 WAT       -35.4320  -72.6660   -7.5830 O         1 <0>         0.0452
  20370 WAT       -35.4320  -72.6660   -7.3330 O         1 <0>         0.0892
  20371 WAT       -35.4320  -72.6660   -7.0830 O         1 <0>         0.1185
  20372 WAT       -35.4320  -72.6660   -6.8330 O         1 <0>         0.1118
  20373 WAT       -35.4320  -72.6660   -6.5830 O         1 <0>         0.0785
  20374 WAT       -35.4320  -72.6660   -6.3330 O         1 <0>         0.0428
  20375 WAT       -35.4320  -72.6660   -6.0830 O         1 <0>         0.0193
  20376 WAT       -35.4320  -72.6660   -5.8330 O         1 <0>         0.0081
  20377 WAT       -35.4320  -72.6660   -5.5830 O         1 <0>         0.0044
  20378 WAT       -35.4320  -72.6660   -5.3330 O         1 <0>         0.0057
  20379 WAT       -35.4320  -72.6660   -5.0830 O         1 <0>         0.0100
  20380 WAT       -35.4320  -72.6660   -4.8330 O         1 <0>         0.0146
  20381 WAT       -35.4320  -72.6660   -4.5830 O         1 <0>         0.0158
  20382 WAT       -35.4320  -72.6660   -4.3330 O         1 <0>         0.0124
  20383 WAT       -35.4320  -72.6660   -4.0830 O         1 <0>         0.0072
  20384 WAT       -35.4320  -72.6660   -3.8330 O         1 <0>         0.0033
  20385 WAT       -35.4320  -72.6660   -3.5830 O         1 <0>         0.0014
  20386 WAT       -35.4320  -72.6660   -3.3330 O         1 <0>         0.0007
  20387 WAT       -35.4320  -72.6660   -3.0830 O         1 <0>         0.0004
  20388 WAT       -35.4320  -72.6660   -2.8330 O         1 <0>         0.0002
  20389 WAT       -35.4320  -72.6660   -2.5830 O         1 <0>         0.0000
  20390 WAT       -35.4320  -72.6660   -2.3330 O         1 <0>         0.0000
  20391 WAT       -35.4320  -72.6660   -2.0830 O         1 <0>         0.0000
  20392 WAT       -35.4320  -72.6660   -1.8330 O         1 <0>         0.0000
  20393 WAT       -35.4320  -72.6660   -1.5830 O         1 <0>         0.0000
  20394 WAT       -35.4320  -72.6660   -1.3330 O         1 <0>         0.0000
  20395 WAT       -35.4320  -72.6660   -1.0830 O         1 <0>         0.0000
  20396 WAT       -35.4320  -72.6660   -0.8330 O         1 <0>         0.0000
  20397 WAT       -35.4320  -72.6660   -0.5830 O         1 <0>         0.0000
  20398 WAT       -35.4320  -72.6660   -0.3330 O         1 <0>         0.0000
  20399 WAT       -35.4320  -72.6660   -0.0830 O         1 <0>         0.0000
  20400 WAT       -35.4320  -72.4160   -9.8330 O         1 <0>         0.0000
  20401 WAT       -35.4320  -72.4160   -9.5830 O         1 <0>         0.0000
  20402 WAT       -35.4320  -72.4160   -9.3330 O         1 <0>         0.0000
  20403 WAT       -35.4320  -72.4160   -9.0830 O         1 <0>         0.0000
  20404 WAT       -35.4320  -72.4160   -8.8330 O         1 <0>         0.0000
  20405 WAT       -35.4320  -72.4160   -8.5830 O         1 <0>         0.0000
  20406 WAT       -35.4320  -72.4160   -8.3330 O         1 <0>         0.0001
  20407 WAT       -35.4320  -72.4160   -8.0830 O         1 <0>         0.0040
  20408 WAT       -35.4320  -72.4160   -7.8330 O         1 <0>         0.0244
  20409 WAT       -35.4320  -72.4160   -7.5830 O         1 <0>         0.0697
  20410 WAT       -35.4320  -72.4160   -7.3330 O         1 <0>         0.1242
  20411 WAT       -35.4320  -72.4160   -7.0830 O         1 <0>         0.1476
  20412 WAT       -35.4320  -72.4160   -6.8330 O         1 <0>         0.1217
  20413 WAT       -35.4320  -72.4160   -6.5830 O         1 <0>         0.0729
  20414 WAT       -35.4320  -72.4160   -6.3330 O         1 <0>         0.0334
  20415 WAT       -35.4320  -72.4160   -6.0830 O         1 <0>         0.0123
  20416 WAT       -35.4320  -72.4160   -5.8330 O         1 <0>         0.0038
  20417 WAT       -35.4320  -72.4160   -5.5830 O         1 <0>         0.0012
  20418 WAT       -35.4320  -72.4160   -5.3330 O         1 <0>         0.0010
  20419 WAT       -35.4320  -72.4160   -5.0830 O         1 <0>         0.0019
  20420 WAT       -35.4320  -72.4160   -4.8330 O         1 <0>         0.0031
  20421 WAT       -35.4320  -72.4160   -4.5830 O         1 <0>         0.0035
  20422 WAT       -35.4320  -72.4160   -4.3330 O         1 <0>         0.0026
  20423 WAT       -35.4320  -72.4160   -4.0830 O         1 <0>         0.0014
  20424 WAT       -35.4320  -72.4160   -3.8330 O         1 <0>         0.0005
  20425 WAT       -35.4320  -72.4160   -3.5830 O         1 <0>         0.0001
  20426 WAT       -35.4320  -72.4160   -3.3330 O         1 <0>         0.0001
  20427 WAT       -35.4320  -72.4160   -3.0830 O         1 <0>         0.0000
  20428 WAT       -35.4320  -72.4160   -2.8330 O         1 <0>         0.0000
  20429 WAT       -35.4320  -72.4160   -2.5830 O         1 <0>         0.0000
  20430 WAT       -35.4320  -72.4160   -2.3330 O         1 <0>         0.0000
  20431 WAT       -35.4320  -72.4160   -2.0830 O         1 <0>         0.0000
  20432 WAT       -35.4320  -72.4160   -1.8330 O         1 <0>         0.0000
  20433 WAT       -35.4320  -72.4160   -1.5830 O         1 <0>         0.0000
  20434 WAT       -35.4320  -72.4160   -1.3330 O         1 <0>         0.0000
  20435 WAT       -35.4320  -72.4160   -1.0830 O         1 <0>         0.0000
  20436 WAT       -35.4320  -72.4160   -0.8330 O         1 <0>         0.0000
  20437 WAT       -35.4320  -72.4160   -0.5830 O         1 <0>         0.0000
  20438 WAT       -35.4320  -72.4160   -0.3330 O         1 <0>         0.0000
  20439 WAT       -35.4320  -72.4160   -0.0830 O         1 <0>         0.0000
  20440 WAT       -35.4320  -72.1660   -9.8330 O         1 <0>         0.0000
  20441 WAT       -35.4320  -72.1660   -9.5830 O         1 <0>         0.0000
  20442 WAT       -35.4320  -72.1660   -9.3330 O         1 <0>         0.0000
  20443 WAT       -35.4320  -72.1660   -9.0830 O         1 <0>         0.0000
  20444 WAT       -35.4320  -72.1660   -8.8330 O         1 <0>         0.0000
  20445 WAT       -35.4320  -72.1660   -8.5830 O         1 <0>         0.0000
  20446 WAT       -35.4320  -72.1660   -8.3330 O         1 <0>         0.0003
  20447 WAT       -35.4320  -72.1660   -8.0830 O         1 <0>         0.0069
  20448 WAT       -35.4320  -72.1660   -7.8330 O         1 <0>         0.0358
  20449 WAT       -35.4320  -72.1660   -7.5830 O         1 <0>         0.0927
  20450 WAT       -35.4320  -72.1660   -7.3330 O         1 <0>         0.1509
  20451 WAT       -35.4320  -72.1660   -7.0830 O         1 <0>         0.1621
  20452 WAT       -35.4320  -72.1660   -6.8330 O         1 <0>         0.1181
  20453 WAT       -35.4320  -72.1660   -6.5830 O         1 <0>         0.0603
  20454 WAT       -35.4320  -72.1660   -6.3330 O         1 <0>         0.0226
  20455 WAT       -35.4320  -72.1660   -6.0830 O         1 <0>         0.0067
  20456 WAT       -35.4320  -72.1660   -5.8330 O         1 <0>         0.0016
  20457 WAT       -35.4320  -72.1660   -5.5830 O         1 <0>         0.0003
  20458 WAT       -35.4320  -72.1660   -5.3330 O         1 <0>         0.0001
  20459 WAT       -35.4320  -72.1660   -5.0830 O         1 <0>         0.0002
  20460 WAT       -35.4320  -72.1660   -4.8330 O         1 <0>         0.0004
  20461 WAT       -35.4320  -72.1660   -4.5830 O         1 <0>         0.0004
  20462 WAT       -35.4320  -72.1660   -4.3330 O         1 <0>         0.0003
  20463 WAT       -35.4320  -72.1660   -4.0830 O         1 <0>         0.0001
  20464 WAT       -35.4320  -72.1660   -3.8330 O         1 <0>         0.0000
  20465 WAT       -35.4320  -72.1660   -3.5830 O         1 <0>         0.0000
  20466 WAT       -35.4320  -72.1660   -3.3330 O         1 <0>         0.0000
  20467 WAT       -35.4320  -72.1660   -3.0830 O         1 <0>         0.0000
  20468 WAT       -35.4320  -72.1660   -2.8330 O         1 <0>         0.0000
  20469 WAT       -35.4320  -72.1660   -2.5830 O         1 <0>         0.0000
  20470 WAT       -35.4320  -72.1660   -2.3330 O         1 <0>         0.0000
  20471 WAT       -35.4320  -72.1660   -2.0830 O         1 <0>         0.0000
  20472 WAT       -35.4320  -72.1660   -1.8330 O         1 <0>         0.0000
  20473 WAT       -35.4320  -72.1660   -1.5830 O         1 <0>         0.0000
  20474 WAT       -35.4320  -72.1660   -1.3330 O         1 <0>         0.0000
  20475 WAT       -35.4320  -72.1660   -1.0830 O         1 <0>         0.0000
  20476 WAT       -35.4320  -72.1660   -0.8330 O         1 <0>         0.0000
  20477 WAT       -35.4320  -72.1660   -0.5830 O         1 <0>         0.0000
  20478 WAT       -35.4320  -72.1660   -0.3330 O         1 <0>         0.0000
  20479 WAT       -35.4320  -72.1660   -0.0830 O         1 <0>         0.0000
  20480 WAT       -35.4320  -71.9160   -9.8330 O         1 <0>         0.0000
  20481 WAT       -35.4320  -71.9160   -9.5830 O         1 <0>         0.0000
  20482 WAT       -35.4320  -71.9160   -9.3330 O         1 <0>         0.0000
  20483 WAT       -35.4320  -71.9160   -9.0830 O         1 <0>         0.0000
  20484 WAT       -35.4320  -71.9160   -8.8330 O         1 <0>         0.0000
  20485 WAT       -35.4320  -71.9160   -8.5830 O         1 <0>         0.0000
  20486 WAT       -35.4320  -71.9160   -8.3330 O         1 <0>         0.0006
  20487 WAT       -35.4320  -71.9160   -8.0830 O         1 <0>         0.0096
  20488 WAT       -35.4320  -71.9160   -7.8330 O         1 <0>         0.0430
  20489 WAT       -35.4320  -71.9160   -7.5830 O         1 <0>         0.1032
  20490 WAT       -35.4320  -71.9160   -7.3330 O         1 <0>         0.1556
  20491 WAT       -35.4320  -71.9160   -7.0830 O         1 <0>         0.1528
  20492 WAT       -35.4320  -71.9160   -6.8330 O         1 <0>         0.0997
  20493 WAT       -35.4320  -71.9160   -6.5830 O         1 <0>         0.0439
  20494 WAT       -35.4320  -71.9160   -6.3330 O         1 <0>         0.0131
  20495 WAT       -35.4320  -71.9160   -6.0830 O         1 <0>         0.0029
  20496 WAT       -35.4320  -71.9160   -5.8330 O         1 <0>         0.0005
  20497 WAT       -35.4320  -71.9160   -5.5830 O         1 <0>         0.0001
  20498 WAT       -35.4320  -71.9160   -5.3330 O         1 <0>         0.0000
  20499 WAT       -35.4320  -71.9160   -5.0830 O         1 <0>         0.0000
  20500 WAT       -35.4320  -71.9160   -4.8330 O         1 <0>         0.0000
  20501 WAT       -35.4320  -71.9160   -4.5830 O         1 <0>         0.0000
  20502 WAT       -35.4320  -71.9160   -4.3330 O         1 <0>         0.0000
  20503 WAT       -35.4320  -71.9160   -4.0830 O         1 <0>         0.0000
  20504 WAT       -35.4320  -71.9160   -3.8330 O         1 <0>         0.0000
  20505 WAT       -35.4320  -71.9160   -3.5830 O         1 <0>         0.0000
  20506 WAT       -35.4320  -71.9160   -3.3330 O         1 <0>         0.0000
  20507 WAT       -35.4320  -71.9160   -3.0830 O         1 <0>         0.0000
  20508 WAT       -35.4320  -71.9160   -2.8330 O         1 <0>         0.0000
  20509 WAT       -35.4320  -71.9160   -2.5830 O         1 <0>         0.0000
  20510 WAT       -35.4320  -71.9160   -2.3330 O         1 <0>         0.0000
  20511 WAT       -35.4320  -71.9160   -2.0830 O         1 <0>         0.0000
  20512 WAT       -35.4320  -71.9160   -1.8330 O         1 <0>         0.0000
  20513 WAT       -35.4320  -71.9160   -1.5830 O         1 <0>         0.0000
  20514 WAT       -35.4320  -71.9160   -1.3330 O         1 <0>         0.0000
  20515 WAT       -35.4320  -71.9160   -1.0830 O         1 <0>         0.0000
  20516 WAT       -35.4320  -71.9160   -0.8330 O         1 <0>         0.0000
  20517 WAT       -35.4320  -71.9160   -0.5830 O         1 <0>         0.0000
  20518 WAT       -35.4320  -71.9160   -0.3330 O         1 <0>         0.0000
  20519 WAT       -35.4320  -71.9160   -0.0830 O         1 <0>         0.0000
  20520 WAT       -35.4320  -71.6660   -9.8330 O         1 <0>         0.0000
  20521 WAT       -35.4320  -71.6660   -9.5830 O         1 <0>         0.0000
  20522 WAT       -35.4320  -71.6660   -9.3330 O         1 <0>         0.0000
  20523 WAT       -35.4320  -71.6660   -9.0830 O         1 <0>         0.0000
  20524 WAT       -35.4320  -71.6660   -8.8330 O         1 <0>         0.0000
  20525 WAT       -35.4320  -71.6660   -8.5830 O         1 <0>         0.0000
  20526 WAT       -35.4320  -71.6660   -8.3330 O         1 <0>         0.0008
  20527 WAT       -35.4320  -71.6660   -8.0830 O         1 <0>         0.0102
  20528 WAT       -35.4320  -71.6660   -7.8330 O         1 <0>         0.0413
  20529 WAT       -35.4320  -71.6660   -7.5830 O         1 <0>         0.0937
  20530 WAT       -35.4320  -71.6660   -7.3330 O         1 <0>         0.1328
  20531 WAT       -35.4320  -71.6660   -7.0830 O         1 <0>         0.1210
  20532 WAT       -35.4320  -71.6660   -6.8330 O         1 <0>         0.0717
  20533 WAT       -35.4320  -71.6660   -6.5830 O         1 <0>         0.0273
  20534 WAT       -35.4320  -71.6660   -6.3330 O         1 <0>         0.0064
  20535 WAT       -35.4320  -71.6660   -6.0830 O         1 <0>         0.0010
  20536 WAT       -35.4320  -71.6660   -5.8330 O         1 <0>         0.0001
  20537 WAT       -35.4320  -71.6660   -5.5830 O         1 <0>         0.0000
  20538 WAT       -35.4320  -71.6660   -5.3330 O         1 <0>         0.0000
  20539 WAT       -35.4320  -71.6660   -5.0830 O         1 <0>         0.0000
  20540 WAT       -35.4320  -71.6660   -4.8330 O         1 <0>         0.0000
  20541 WAT       -35.4320  -71.6660   -4.5830 O         1 <0>         0.0000
  20542 WAT       -35.4320  -71.6660   -4.3330 O         1 <0>         0.0000
  20543 WAT       -35.4320  -71.6660   -4.0830 O         1 <0>         0.0000
  20544 WAT       -35.4320  -71.6660   -3.8330 O         1 <0>         0.0000
  20545 WAT       -35.4320  -71.6660   -3.5830 O         1 <0>         0.0000
  20546 WAT       -35.4320  -71.6660   -3.3330 O         1 <0>         0.0000
  20547 WAT       -35.4320  -71.6660   -3.0830 O         1 <0>         0.0000
  20548 WAT       -35.4320  -71.6660   -2.8330 O         1 <0>         0.0000
  20549 WAT       -35.4320  -71.6660   -2.5830 O         1 <0>         0.0000
  20550 WAT       -35.4320  -71.6660   -2.3330 O         1 <0>         0.0000
  20551 WAT       -35.4320  -71.6660   -2.0830 O         1 <0>         0.0000
  20552 WAT       -35.4320  -71.6660   -1.8330 O         1 <0>         0.0000
  20553 WAT       -35.4320  -71.6660   -1.5830 O         1 <0>         0.0000
  20554 WAT       -35.4320  -71.6660   -1.3330 O         1 <0>         0.0000
  20555 WAT       -35.4320  -71.6660   -1.0830 O         1 <0>         0.0000
  20556 WAT       -35.4320  -71.6660   -0.8330 O         1 <0>         0.0000
  20557 WAT       -35.4320  -71.6660   -0.5830 O         1 <0>         0.0000
  20558 WAT       -35.4320  -71.6660   -0.3330 O         1 <0>         0.0000
  20559 WAT       -35.4320  -71.6660   -0.0830 O         1 <0>         0.0000
  20560 WAT       -35.4320  -71.4160   -9.8330 O         1 <0>         0.0000
  20561 WAT       -35.4320  -71.4160   -9.5830 O         1 <0>         0.0000
  20562 WAT       -35.4320  -71.4160   -9.3330 O         1 <0>         0.0000
  20563 WAT       -35.4320  -71.4160   -9.0830 O         1 <0>         0.0000
  20564 WAT       -35.4320  -71.4160   -8.8330 O         1 <0>         0.0000
  20565 WAT       -35.4320  -71.4160   -8.5830 O         1 <0>         0.0000
  20566 WAT       -35.4320  -71.4160   -8.3330 O         1 <0>         0.0008
  20567 WAT       -35.4320  -71.4160   -8.0830 O         1 <0>         0.0080
  20568 WAT       -35.4320  -71.4160   -7.8330 O         1 <0>         0.0312
  20569 WAT       -35.4320  -71.4160   -7.5830 O         1 <0>         0.0678
  20570 WAT       -35.4320  -71.4160   -7.3330 O         1 <0>         0.0917
  20571 WAT       -35.4320  -71.4160   -7.0830 O         1 <0>         0.0787
  20572 WAT       -35.4320  -71.4160   -6.8330 O         1 <0>         0.0430
  20573 WAT       -35.4320  -71.4160   -6.5830 O         1 <0>         0.0144
  20574 WAT       -35.4320  -71.4160   -6.3330 O         1 <0>         0.0027
  20575 WAT       -35.4320  -71.4160   -6.0830 O         1 <0>         0.0003
  20576 WAT       -35.4320  -71.4160   -5.8330 O         1 <0>         0.0000
  20577 WAT       -35.4320  -71.4160   -5.5830 O         1 <0>         0.0000
  20578 WAT       -35.4320  -71.4160   -5.3330 O         1 <0>         0.0000
  20579 WAT       -35.4320  -71.4160   -5.0830 O         1 <0>         0.0000
  20580 WAT       -35.4320  -71.4160   -4.8330 O         1 <0>         0.0000
  20581 WAT       -35.4320  -71.4160   -4.5830 O         1 <0>         0.0000
  20582 WAT       -35.4320  -71.4160   -4.3330 O         1 <0>         0.0000
  20583 WAT       -35.4320  -71.4160   -4.0830 O         1 <0>         0.0000
  20584 WAT       -35.4320  -71.4160   -3.8330 O         1 <0>         0.0000
  20585 WAT       -35.4320  -71.4160   -3.5830 O         1 <0>         0.0000
  20586 WAT       -35.4320  -71.4160   -3.3330 O         1 <0>         0.0000
  20587 WAT       -35.4320  -71.4160   -3.0830 O         1 <0>         0.0000
  20588 WAT       -35.4320  -71.4160   -2.8330 O         1 <0>         0.0000
  20589 WAT       -35.4320  -71.4160   -2.5830 O         1 <0>         0.0000
  20590 WAT       -35.4320  -71.4160   -2.3330 O         1 <0>         0.0000
  20591 WAT       -35.4320  -71.4160   -2.0830 O         1 <0>         0.0000
  20592 WAT       -35.4320  -71.4160   -1.8330 O         1 <0>         0.0000
  20593 WAT       -35.4320  -71.4160   -1.5830 O         1 <0>         0.0000
  20594 WAT       -35.4320  -71.4160   -1.3330 O         1 <0>         0.0000
  20595 WAT       -35.4320  -71.4160   -1.0830 O         1 <0>         0.0000
  20596 WAT       -35.4320  -71.4160   -0.8330 O         1 <0>         0.0000
  20597 WAT       -35.4320  -71.4160   -0.5830 O         1 <0>         0.0000
  20598 WAT       -35.4320  -71.4160   -0.3330 O         1 <0>         0.0000
  20599 WAT       -35.4320  -71.4160   -0.0830 O         1 <0>         0.0000
  20600 WAT       -35.4320  -71.1660   -9.8330 O         1 <0>         0.0000
  20601 WAT       -35.4320  -71.1660   -9.5830 O         1 <0>         0.0000
  20602 WAT       -35.4320  -71.1660   -9.3330 O         1 <0>         0.0000
  20603 WAT       -35.4320  -71.1660   -9.0830 O         1 <0>         0.0000
  20604 WAT       -35.4320  -71.1660   -8.8330 O         1 <0>         0.0000
  20605 WAT       -35.4320  -71.1660   -8.5830 O         1 <0>         0.0000
  20606 WAT       -35.4320  -71.1660   -8.3330 O         1 <0>         0.0005
  20607 WAT       -35.4320  -71.1660   -8.0830 O         1 <0>         0.0047
  20608 WAT       -35.4320  -71.1660   -7.8330 O         1 <0>         0.0180
  20609 WAT       -35.4320  -71.1660   -7.5830 O         1 <0>         0.0383
  20610 WAT       -35.4320  -71.1660   -7.3330 O         1 <0>         0.0502
  20611 WAT       -35.4320  -71.1660   -7.0830 O         1 <0>         0.0412
  20612 WAT       -35.4320  -71.1660   -6.8330 O         1 <0>         0.0211
  20613 WAT       -35.4320  -71.1660   -6.5830 O         1 <0>         0.0064
  20614 WAT       -35.4320  -71.1660   -6.3330 O         1 <0>         0.0010
  20615 WAT       -35.4320  -71.1660   -6.0830 O         1 <0>         0.0001
  20616 WAT       -35.4320  -71.1660   -5.8330 O         1 <0>         0.0000
  20617 WAT       -35.4320  -71.1660   -5.5830 O         1 <0>         0.0000
  20618 WAT       -35.4320  -71.1660   -5.3330 O         1 <0>         0.0000
  20619 WAT       -35.4320  -71.1660   -5.0830 O         1 <0>         0.0000
  20620 WAT       -35.4320  -71.1660   -4.8330 O         1 <0>         0.0000
  20621 WAT       -35.4320  -71.1660   -4.5830 O         1 <0>         0.0000
  20622 WAT       -35.4320  -71.1660   -4.3330 O         1 <0>         0.0000
  20623 WAT       -35.4320  -71.1660   -4.0830 O         1 <0>         0.0000
  20624 WAT       -35.4320  -71.1660   -3.8330 O         1 <0>         0.0000
  20625 WAT       -35.4320  -71.1660   -3.5830 O         1 <0>         0.0000
  20626 WAT       -35.4320  -71.1660   -3.3330 O         1 <0>         0.0000
  20627 WAT       -35.4320  -71.1660   -3.0830 O         1 <0>         0.0000
  20628 WAT       -35.4320  -71.1660   -2.8330 O         1 <0>         0.0000
  20629 WAT       -35.4320  -71.1660   -2.5830 O         1 <0>         0.0000
  20630 WAT       -35.4320  -71.1660   -2.3330 O         1 <0>         0.0000
  20631 WAT       -35.4320  -71.1660   -2.0830 O         1 <0>         0.0000
  20632 WAT       -35.4320  -71.1660   -1.8330 O         1 <0>         0.0000
  20633 WAT       -35.4320  -71.1660   -1.5830 O         1 <0>         0.0000
  20634 WAT       -35.4320  -71.1660   -1.3330 O         1 <0>         0.0000
  20635 WAT       -35.4320  -71.1660   -1.0830 O         1 <0>         0.0000
  20636 WAT       -35.4320  -71.1660   -0.8330 O         1 <0>         0.0000
  20637 WAT       -35.4320  -71.1660   -0.5830 O         1 <0>         0.0000
  20638 WAT       -35.4320  -71.1660   -0.3330 O         1 <0>         0.0000
  20639 WAT       -35.4320  -71.1660   -0.0830 O         1 <0>         0.0000
  20640 WAT       -35.4320  -70.9160   -9.8330 O         1 <0>         0.0000
  20641 WAT       -35.4320  -70.9160   -9.5830 O         1 <0>         0.0000
  20642 WAT       -35.4320  -70.9160   -9.3330 O         1 <0>         0.0000
  20643 WAT       -35.4320  -70.9160   -9.0830 O         1 <0>         0.0000
  20644 WAT       -35.4320  -70.9160   -8.8330 O         1 <0>         0.0000
  20645 WAT       -35.4320  -70.9160   -8.5830 O         1 <0>         0.0000
  20646 WAT       -35.4320  -70.9160   -8.3330 O         1 <0>         0.0002
  20647 WAT       -35.4320  -70.9160   -8.0830 O         1 <0>         0.0020
  20648 WAT       -35.4320  -70.9160   -7.8330 O         1 <0>         0.0078
  20649 WAT       -35.4320  -70.9160   -7.5830 O         1 <0>         0.0165
  20650 WAT       -35.4320  -70.9160   -7.3330 O         1 <0>         0.0213
  20651 WAT       -35.4320  -70.9160   -7.0830 O         1 <0>         0.0170
  20652 WAT       -35.4320  -70.9160   -6.8330 O         1 <0>         0.0083
  20653 WAT       -35.4320  -70.9160   -6.5830 O         1 <0>         0.0023
  20654 WAT       -35.4320  -70.9160   -6.3330 O         1 <0>         0.0003
  20655 WAT       -35.4320  -70.9160   -6.0830 O         1 <0>         0.0000
  20656 WAT       -35.4320  -70.9160   -5.8330 O         1 <0>         0.0000
  20657 WAT       -35.4320  -70.9160   -5.5830 O         1 <0>         0.0000
  20658 WAT       -35.4320  -70.9160   -5.3330 O         1 <0>         0.0000
  20659 WAT       -35.4320  -70.9160   -5.0830 O         1 <0>         0.0000
  20660 WAT       -35.4320  -70.9160   -4.8330 O         1 <0>         0.0000
  20661 WAT       -35.4320  -70.9160   -4.5830 O         1 <0>         0.0000
  20662 WAT       -35.4320  -70.9160   -4.3330 O         1 <0>         0.0000
  20663 WAT       -35.4320  -70.9160   -4.0830 O         1 <0>         0.0000
  20664 WAT       -35.4320  -70.9160   -3.8330 O         1 <0>         0.0000
  20665 WAT       -35.4320  -70.9160   -3.5830 O         1 <0>         0.0000
  20666 WAT       -35.4320  -70.9160   -3.3330 O         1 <0>         0.0000
  20667 WAT       -35.4320  -70.9160   -3.0830 O         1 <0>         0.0000
  20668 WAT       -35.4320  -70.9160   -2.8330 O         1 <0>         0.0000
  20669 WAT       -35.4320  -70.9160   -2.5830 O         1 <0>         0.0000
  20670 WAT       -35.4320  -70.9160   -2.3330 O         1 <0>         0.0000
  20671 WAT       -35.4320  -70.9160   -2.0830 O         1 <0>         0.0000
  20672 WAT       -35.4320  -70.9160   -1.8330 O         1 <0>         0.0000
  20673 WAT       -35.4320  -70.9160   -1.5830 O         1 <0>         0.0000
  20674 WAT       -35.4320  -70.9160   -1.3330 O         1 <0>         0.0000
  20675 WAT       -35.4320  -70.9160   -1.0830 O         1 <0>         0.0000
  20676 WAT       -35.4320  -70.9160   -0.8330 O         1 <0>         0.0000
  20677 WAT       -35.4320  -70.9160   -0.5830 O         1 <0>         0.0000
  20678 WAT       -35.4320  -70.9160   -0.3330 O         1 <0>         0.0000
  20679 WAT       -35.4320  -70.9160   -0.0830 O         1 <0>         0.0000
  20680 WAT       -35.4320  -70.6660   -9.8330 O         1 <0>         0.0000
  20681 WAT       -35.4320  -70.6660   -9.5830 O         1 <0>         0.0000
  20682 WAT       -35.4320  -70.6660   -9.3330 O         1 <0>         0.0000
  20683 WAT       -35.4320  -70.6660   -9.0830 O         1 <0>         0.0000
  20684 WAT       -35.4320  -70.6660   -8.8330 O         1 <0>         0.0000
  20685 WAT       -35.4320  -70.6660   -8.5830 O         1 <0>         0.0000
  20686 WAT       -35.4320  -70.6660   -8.3330 O         1 <0>         0.0001
  20687 WAT       -35.4320  -70.6660   -8.0830 O         1 <0>         0.0006
  20688 WAT       -35.4320  -70.6660   -7.8330 O         1 <0>         0.0024
  20689 WAT       -35.4320  -70.6660   -7.5830 O         1 <0>         0.0052
  20690 WAT       -35.4320  -70.6660   -7.3330 O         1 <0>         0.0068
  20691 WAT       -35.4320  -70.6660   -7.0830 O         1 <0>         0.0054
  20692 WAT       -35.4320  -70.6660   -6.8330 O         1 <0>         0.0025
  20693 WAT       -35.4320  -70.6660   -6.5830 O         1 <0>         0.0007
  20694 WAT       -35.4320  -70.6660   -6.3330 O         1 <0>         0.0001
  20695 WAT       -35.4320  -70.6660   -6.0830 O         1 <0>         0.0000
  20696 WAT       -35.4320  -70.6660   -5.8330 O         1 <0>         0.0000
  20697 WAT       -35.4320  -70.6660   -5.5830 O         1 <0>         0.0000
  20698 WAT       -35.4320  -70.6660   -5.3330 O         1 <0>         0.0000
  20699 WAT       -35.4320  -70.6660   -5.0830 O         1 <0>         0.0000
  20700 WAT       -35.4320  -70.6660   -4.8330 O         1 <0>         0.0000
  20701 WAT       -35.4320  -70.6660   -4.5830 O         1 <0>         0.0000
  20702 WAT       -35.4320  -70.6660   -4.3330 O         1 <0>         0.0000
  20703 WAT       -35.4320  -70.6660   -4.0830 O         1 <0>         0.0000
  20704 WAT       -35.4320  -70.6660   -3.8330 O         1 <0>         0.0000
  20705 WAT       -35.4320  -70.6660   -3.5830 O         1 <0>         0.0000
  20706 WAT       -35.4320  -70.6660   -3.3330 O         1 <0>         0.0000
  20707 WAT       -35.4320  -70.6660   -3.0830 O         1 <0>         0.0000
  20708 WAT       -35.4320  -70.6660   -2.8330 O         1 <0>         0.0000
  20709 WAT       -35.4320  -70.6660   -2.5830 O         1 <0>         0.0000
  20710 WAT       -35.4320  -70.6660   -2.3330 O         1 <0>         0.0000
  20711 WAT       -35.4320  -70.6660   -2.0830 O         1 <0>         0.0000
  20712 WAT       -35.4320  -70.6660   -1.8330 O         1 <0>         0.0000
  20713 WAT       -35.4320  -70.6660   -1.5830 O         1 <0>         0.0000
  20714 WAT       -35.4320  -70.6660   -1.3330 O         1 <0>         0.0000
  20715 WAT       -35.4320  -70.6660   -1.0830 O         1 <0>         0.0000
  20716 WAT       -35.4320  -70.6660   -0.8330 O         1 <0>         0.0000
  20717 WAT       -35.4320  -70.6660   -0.5830 O         1 <0>         0.0000
  20718 WAT       -35.4320  -70.6660   -0.3330 O         1 <0>         0.0000
  20719 WAT       -35.4320  -70.6660   -0.0830 O         1 <0>         0.0000
  20720 WAT       -35.4320  -70.4160   -9.8330 O         1 <0>         0.0000
  20721 WAT       -35.4320  -70.4160   -9.5830 O         1 <0>         0.0000
  20722 WAT       -35.4320  -70.4160   -9.3330 O         1 <0>         0.0000
  20723 WAT       -35.4320  -70.4160   -9.0830 O         1 <0>         0.0000
  20724 WAT       -35.4320  -70.4160   -8.8330 O         1 <0>         0.0000
  20725 WAT       -35.4320  -70.4160   -8.5830 O         1 <0>         0.0000
  20726 WAT       -35.4320  -70.4160   -8.3330 O         1 <0>         0.0000
  20727 WAT       -35.4320  -70.4160   -8.0830 O         1 <0>         0.0001
  20728 WAT       -35.4320  -70.4160   -7.8330 O         1 <0>         0.0005
  20729 WAT       -35.4320  -70.4160   -7.5830 O         1 <0>         0.0011
  20730 WAT       -35.4320  -70.4160   -7.3330 O         1 <0>         0.0015
  20731 WAT       -35.4320  -70.4160   -7.0830 O         1 <0>         0.0012
  20732 WAT       -35.4320  -70.4160   -6.8330 O         1 <0>         0.0006
  20733 WAT       -35.4320  -70.4160   -6.5830 O         1 <0>         0.0002
  20734 WAT       -35.4320  -70.4160   -6.3330 O         1 <0>         0.0000
  20735 WAT       -35.4320  -70.4160   -6.0830 O         1 <0>         0.0000
  20736 WAT       -35.4320  -70.4160   -5.8330 O         1 <0>         0.0000
  20737 WAT       -35.4320  -70.4160   -5.5830 O         1 <0>         0.0000
  20738 WAT       -35.4320  -70.4160   -5.3330 O         1 <0>         0.0000
  20739 WAT       -35.4320  -70.4160   -5.0830 O         1 <0>         0.0000
  20740 WAT       -35.4320  -70.4160   -4.8330 O         1 <0>         0.0000
  20741 WAT       -35.4320  -70.4160   -4.5830 O         1 <0>         0.0000
  20742 WAT       -35.4320  -70.4160   -4.3330 O         1 <0>         0.0000
  20743 WAT       -35.4320  -70.4160   -4.0830 O         1 <0>         0.0000
  20744 WAT       -35.4320  -70.4160   -3.8330 O         1 <0>         0.0000
  20745 WAT       -35.4320  -70.4160   -3.5830 O         1 <0>         0.0000
  20746 WAT       -35.4320  -70.4160   -3.3330 O         1 <0>         0.0000
  20747 WAT       -35.4320  -70.4160   -3.0830 O         1 <0>         0.0000
  20748 WAT       -35.4320  -70.4160   -2.8330 O         1 <0>         0.0000
  20749 WAT       -35.4320  -70.4160   -2.5830 O         1 <0>         0.0000
  20750 WAT       -35.4320  -70.4160   -2.3330 O         1 <0>         0.0000
  20751 WAT       -35.4320  -70.4160   -2.0830 O         1 <0>         0.0000
  20752 WAT       -35.4320  -70.4160   -1.8330 O         1 <0>         0.0000
  20753 WAT       -35.4320  -70.4160   -1.5830 O         1 <0>         0.0000
  20754 WAT       -35.4320  -70.4160   -1.3330 O         1 <0>         0.0000
  20755 WAT       -35.4320  -70.4160   -1.0830 O         1 <0>         0.0000
  20756 WAT       -35.4320  -70.4160   -0.8330 O         1 <0>         0.0000
  20757 WAT       -35.4320  -70.4160   -0.5830 O         1 <0>         0.0000
  20758 WAT       -35.4320  -70.4160   -0.3330 O         1 <0>         0.0000
  20759 WAT       -35.4320  -70.4160   -0.0830 O         1 <0>         0.0000
  20760 WAT       -35.4320  -70.1660   -9.8330 O         1 <0>         0.0000
  20761 WAT       -35.4320  -70.1660   -9.5830 O         1 <0>         0.0000
  20762 WAT       -35.4320  -70.1660   -9.3330 O         1 <0>         0.0000
  20763 WAT       -35.4320  -70.1660   -9.0830 O         1 <0>         0.0000
  20764 WAT       -35.4320  -70.1660   -8.8330 O         1 <0>         0.0000
  20765 WAT       -35.4320  -70.1660   -8.5830 O         1 <0>         0.0000
  20766 WAT       -35.4320  -70.1660   -8.3330 O         1 <0>         0.0000
  20767 WAT       -35.4320  -70.1660   -8.0830 O         1 <0>         0.0000
  20768 WAT       -35.4320  -70.1660   -7.8330 O         1 <0>         0.0000
  20769 WAT       -35.4320  -70.1660   -7.5830 O         1 <0>         0.0001
  20770 WAT       -35.4320  -70.1660   -7.3330 O         1 <0>         0.0002
  20771 WAT       -35.4320  -70.1660   -7.0830 O         1 <0>         0.0002
  20772 WAT       -35.4320  -70.1660   -6.8330 O         1 <0>         0.0001
  20773 WAT       -35.4320  -70.1660   -6.5830 O         1 <0>         0.0000
  20774 WAT       -35.4320  -70.1660   -6.3330 O         1 <0>         0.0000
  20775 WAT       -35.4320  -70.1660   -6.0830 O         1 <0>         0.0000
  20776 WAT       -35.4320  -70.1660   -5.8330 O         1 <0>         0.0000
  20777 WAT       -35.4320  -70.1660   -5.5830 O         1 <0>         0.0000
  20778 WAT       -35.4320  -70.1660   -5.3330 O         1 <0>         0.0000
  20779 WAT       -35.4320  -70.1660   -5.0830 O         1 <0>         0.0000
  20780 WAT       -35.4320  -70.1660   -4.8330 O         1 <0>         0.0000
  20781 WAT       -35.4320  -70.1660   -4.5830 O         1 <0>         0.0000
  20782 WAT       -35.4320  -70.1660   -4.3330 O         1 <0>         0.0000
  20783 WAT       -35.4320  -70.1660   -4.0830 O         1 <0>         0.0000
  20784 WAT       -35.4320  -70.1660   -3.8330 O         1 <0>         0.0000
  20785 WAT       -35.4320  -70.1660   -3.5830 O         1 <0>         0.0000
  20786 WAT       -35.4320  -70.1660   -3.3330 O         1 <0>         0.0000
  20787 WAT       -35.4320  -70.1660   -3.0830 O         1 <0>         0.0000
  20788 WAT       -35.4320  -70.1660   -2.8330 O         1 <0>         0.0000
  20789 WAT       -35.4320  -70.1660   -2.5830 O         1 <0>         0.0000
  20790 WAT       -35.4320  -70.1660   -2.3330 O         1 <0>         0.0000
  20791 WAT       -35.4320  -70.1660   -2.0830 O         1 <0>         0.0000
  20792 WAT       -35.4320  -70.1660   -1.8330 O         1 <0>         0.0000
  20793 WAT       -35.4320  -70.1660   -1.5830 O         1 <0>         0.0000
  20794 WAT       -35.4320  -70.1660   -1.3330 O         1 <0>         0.0000
  20795 WAT       -35.4320  -70.1660   -1.0830 O         1 <0>         0.0000
  20796 WAT       -35.4320  -70.1660   -0.8330 O         1 <0>         0.0000
  20797 WAT       -35.4320  -70.1660   -0.5830 O         1 <0>         0.0000
  20798 WAT       -35.4320  -70.1660   -0.3330 O         1 <0>         0.0000
  20799 WAT       -35.4320  -70.1660   -0.0830 O         1 <0>         0.0000
  20800 WAT       -35.4320  -69.9160   -9.8330 O         1 <0>         0.0000
  20801 WAT       -35.4320  -69.9160   -9.5830 O         1 <0>         0.0000
  20802 WAT       -35.4320  -69.9160   -9.3330 O         1 <0>         0.0000
  20803 WAT       -35.4320  -69.9160   -9.0830 O         1 <0>         0.0000
  20804 WAT       -35.4320  -69.9160   -8.8330 O         1 <0>         0.0000
  20805 WAT       -35.4320  -69.9160   -8.5830 O         1 <0>         0.0000
  20806 WAT       -35.4320  -69.9160   -8.3330 O         1 <0>         0.0000
  20807 WAT       -35.4320  -69.9160   -8.0830 O         1 <0>         0.0000
  20808 WAT       -35.4320  -69.9160   -7.8330 O         1 <0>         0.0000
  20809 WAT       -35.4320  -69.9160   -7.5830 O         1 <0>         0.0000
  20810 WAT       -35.4320  -69.9160   -7.3330 O         1 <0>         0.0000
  20811 WAT       -35.4320  -69.9160   -7.0830 O         1 <0>         0.0000
  20812 WAT       -35.4320  -69.9160   -6.8330 O         1 <0>         0.0000
  20813 WAT       -35.4320  -69.9160   -6.5830 O         1 <0>         0.0000
  20814 WAT       -35.4320  -69.9160   -6.3330 O         1 <0>         0.0000
  20815 WAT       -35.4320  -69.9160   -6.0830 O         1 <0>         0.0000
  20816 WAT       -35.4320  -69.9160   -5.8330 O         1 <0>         0.0000
  20817 WAT       -35.4320  -69.9160   -5.5830 O         1 <0>         0.0000
  20818 WAT       -35.4320  -69.9160   -5.3330 O         1 <0>         0.0000
  20819 WAT       -35.4320  -69.9160   -5.0830 O         1 <0>         0.0000
  20820 WAT       -35.4320  -69.9160   -4.8330 O         1 <0>         0.0000
  20821 WAT       -35.4320  -69.9160   -4.5830 O         1 <0>         0.0000
  20822 WAT       -35.4320  -69.9160   -4.3330 O         1 <0>         0.0000
  20823 WAT       -35.4320  -69.9160   -4.0830 O         1 <0>         0.0000
  20824 WAT       -35.4320  -69.9160   -3.8330 O         1 <0>         0.0000
  20825 WAT       -35.4320  -69.9160   -3.5830 O         1 <0>         0.0000
  20826 WAT       -35.4320  -69.9160   -3.3330 O         1 <0>         0.0000
  20827 WAT       -35.4320  -69.9160   -3.0830 O         1 <0>         0.0000
  20828 WAT       -35.4320  -69.9160   -2.8330 O         1 <0>         0.0000
  20829 WAT       -35.4320  -69.9160   -2.5830 O         1 <0>         0.0000
  20830 WAT       -35.4320  -69.9160   -2.3330 O         1 <0>         0.0000
  20831 WAT       -35.4320  -69.9160   -2.0830 O         1 <0>         0.0000
  20832 WAT       -35.4320  -69.9160   -1.8330 O         1 <0>         0.0000
  20833 WAT       -35.4320  -69.9160   -1.5830 O         1 <0>         0.0000
  20834 WAT       -35.4320  -69.9160   -1.3330 O         1 <0>         0.0000
  20835 WAT       -35.4320  -69.9160   -1.0830 O         1 <0>         0.0000
  20836 WAT       -35.4320  -69.9160   -0.8330 O         1 <0>         0.0000
  20837 WAT       -35.4320  -69.9160   -0.5830 O         1 <0>         0.0000
  20838 WAT       -35.4320  -69.9160   -0.3330 O         1 <0>         0.0000
  20839 WAT       -35.4320  -69.9160   -0.0830 O         1 <0>         0.0000
  20840 WAT       -35.4320  -69.6660   -9.8330 O         1 <0>         0.0000
  20841 WAT       -35.4320  -69.6660   -9.5830 O         1 <0>         0.0000
  20842 WAT       -35.4320  -69.6660   -9.3330 O         1 <0>         0.0000
  20843 WAT       -35.4320  -69.6660   -9.0830 O         1 <0>         0.0000
  20844 WAT       -35.4320  -69.6660   -8.8330 O         1 <0>         0.0000
  20845 WAT       -35.4320  -69.6660   -8.5830 O         1 <0>         0.0000
  20846 WAT       -35.4320  -69.6660   -8.3330 O         1 <0>         0.0000
  20847 WAT       -35.4320  -69.6660   -8.0830 O         1 <0>         0.0000
  20848 WAT       -35.4320  -69.6660   -7.8330 O         1 <0>         0.0000
  20849 WAT       -35.4320  -69.6660   -7.5830 O         1 <0>         0.0000
  20850 WAT       -35.4320  -69.6660   -7.3330 O         1 <0>         0.0000
  20851 WAT       -35.4320  -69.6660   -7.0830 O         1 <0>         0.0000
  20852 WAT       -35.4320  -69.6660   -6.8330 O         1 <0>         0.0000
  20853 WAT       -35.4320  -69.6660   -6.5830 O         1 <0>         0.0000
  20854 WAT       -35.4320  -69.6660   -6.3330 O         1 <0>         0.0000
  20855 WAT       -35.4320  -69.6660   -6.0830 O         1 <0>         0.0000
  20856 WAT       -35.4320  -69.6660   -5.8330 O         1 <0>         0.0000
  20857 WAT       -35.4320  -69.6660   -5.5830 O         1 <0>         0.0000
  20858 WAT       -35.4320  -69.6660   -5.3330 O         1 <0>         0.0000
  20859 WAT       -35.4320  -69.6660   -5.0830 O         1 <0>         0.0000
  20860 WAT       -35.4320  -69.6660   -4.8330 O         1 <0>         0.0000
  20861 WAT       -35.4320  -69.6660   -4.5830 O         1 <0>         0.0000
  20862 WAT       -35.4320  -69.6660   -4.3330 O         1 <0>         0.0000
  20863 WAT       -35.4320  -69.6660   -4.0830 O         1 <0>         0.0000
  20864 WAT       -35.4320  -69.6660   -3.8330 O         1 <0>         0.0000
  20865 WAT       -35.4320  -69.6660   -3.5830 O         1 <0>         0.0000
  20866 WAT       -35.4320  -69.6660   -3.3330 O         1 <0>         0.0000
  20867 WAT       -35.4320  -69.6660   -3.0830 O         1 <0>         0.0000
  20868 WAT       -35.4320  -69.6660   -2.8330 O         1 <0>         0.0000
  20869 WAT       -35.4320  -69.6660   -2.5830 O         1 <0>         0.0000
  20870 WAT       -35.4320  -69.6660   -2.3330 O         1 <0>         0.0000
  20871 WAT       -35.4320  -69.6660   -2.0830 O         1 <0>         0.0000
  20872 WAT       -35.4320  -69.6660   -1.8330 O         1 <0>         0.0000
  20873 WAT       -35.4320  -69.6660   -1.5830 O         1 <0>         0.0000
  20874 WAT       -35.4320  -69.6660   -1.3330 O         1 <0>         0.0000
  20875 WAT       -35.4320  -69.6660   -1.0830 O         1 <0>         0.0000
  20876 WAT       -35.4320  -69.6660   -0.8330 O         1 <0>         0.0000
  20877 WAT       -35.4320  -69.6660   -0.5830 O         1 <0>         0.0000
  20878 WAT       -35.4320  -69.6660   -0.3330 O         1 <0>         0.0000
  20879 WAT       -35.4320  -69.6660   -0.0830 O         1 <0>         0.0000
  20880 WAT       -35.4320  -69.4160   -9.8330 O         1 <0>         0.0000
  20881 WAT       -35.4320  -69.4160   -9.5830 O         1 <0>         0.0000
  20882 WAT       -35.4320  -69.4160   -9.3330 O         1 <0>         0.0000
  20883 WAT       -35.4320  -69.4160   -9.0830 O         1 <0>         0.0000
  20884 WAT       -35.4320  -69.4160   -8.8330 O         1 <0>         0.0000
  20885 WAT       -35.4320  -69.4160   -8.5830 O         1 <0>         0.0000
  20886 WAT       -35.4320  -69.4160   -8.3330 O         1 <0>         0.0000
  20887 WAT       -35.4320  -69.4160   -8.0830 O         1 <0>         0.0000
  20888 WAT       -35.4320  -69.4160   -7.8330 O         1 <0>         0.0000
  20889 WAT       -35.4320  -69.4160   -7.5830 O         1 <0>         0.0000
  20890 WAT       -35.4320  -69.4160   -7.3330 O         1 <0>         0.0000
  20891 WAT       -35.4320  -69.4160   -7.0830 O         1 <0>         0.0000
  20892 WAT       -35.4320  -69.4160   -6.8330 O         1 <0>         0.0000
  20893 WAT       -35.4320  -69.4160   -6.5830 O         1 <0>         0.0000
  20894 WAT       -35.4320  -69.4160   -6.3330 O         1 <0>         0.0000
  20895 WAT       -35.4320  -69.4160   -6.0830 O         1 <0>         0.0000
  20896 WAT       -35.4320  -69.4160   -5.8330 O         1 <0>         0.0000
  20897 WAT       -35.4320  -69.4160   -5.5830 O         1 <0>         0.0000
  20898 WAT       -35.4320  -69.4160   -5.3330 O         1 <0>         0.0000
  20899 WAT       -35.4320  -69.4160   -5.0830 O         1 <0>         0.0000
  20900 WAT       -35.4320  -69.4160   -4.8330 O         1 <0>         0.0000
  20901 WAT       -35.4320  -69.4160   -4.5830 O         1 <0>         0.0000
  20902 WAT       -35.4320  -69.4160   -4.3330 O         1 <0>         0.0000
  20903 WAT       -35.4320  -69.4160   -4.0830 O         1 <0>         0.0000
  20904 WAT       -35.4320  -69.4160   -3.8330 O         1 <0>         0.0000
  20905 WAT       -35.4320  -69.4160   -3.5830 O         1 <0>         0.0000
  20906 WAT       -35.4320  -69.4160   -3.3330 O         1 <0>         0.0000
  20907 WAT       -35.4320  -69.4160   -3.0830 O         1 <0>         0.0000
  20908 WAT       -35.4320  -69.4160   -2.8330 O         1 <0>         0.0000
  20909 WAT       -35.4320  -69.4160   -2.5830 O         1 <0>         0.0000
  20910 WAT       -35.4320  -69.4160   -2.3330 O         1 <0>         0.0000
  20911 WAT       -35.4320  -69.4160   -2.0830 O         1 <0>         0.0000
  20912 WAT       -35.4320  -69.4160   -1.8330 O         1 <0>         0.0000
  20913 WAT       -35.4320  -69.4160   -1.5830 O         1 <0>         0.0000
  20914 WAT       -35.4320  -69.4160   -1.3330 O         1 <0>         0.0000
  20915 WAT       -35.4320  -69.4160   -1.0830 O         1 <0>         0.0000
  20916 WAT       -35.4320  -69.4160   -0.8330 O         1 <0>         0.0000
  20917 WAT       -35.4320  -69.4160   -0.5830 O         1 <0>         0.0000
  20918 WAT       -35.4320  -69.4160   -0.3330 O         1 <0>         0.0000
  20919 WAT       -35.4320  -69.4160   -0.0830 O         1 <0>         0.0000
  20920 WAT       -35.4320  -69.1660   -9.8330 O         1 <0>         0.0000
  20921 WAT       -35.4320  -69.1660   -9.5830 O         1 <0>         0.0000
  20922 WAT       -35.4320  -69.1660   -9.3330 O         1 <0>         0.0000
  20923 WAT       -35.4320  -69.1660   -9.0830 O         1 <0>         0.0000
  20924 WAT       -35.4320  -69.1660   -8.8330 O         1 <0>         0.0000
  20925 WAT       -35.4320  -69.1660   -8.5830 O         1 <0>         0.0000
  20926 WAT       -35.4320  -69.1660   -8.3330 O         1 <0>         0.0000
  20927 WAT       -35.4320  -69.1660   -8.0830 O         1 <0>         0.0000
  20928 WAT       -35.4320  -69.1660   -7.8330 O         1 <0>         0.0000
  20929 WAT       -35.4320  -69.1660   -7.5830 O         1 <0>         0.0000
  20930 WAT       -35.4320  -69.1660   -7.3330 O         1 <0>         0.0000
  20931 WAT       -35.4320  -69.1660   -7.0830 O         1 <0>         0.0000
  20932 WAT       -35.4320  -69.1660   -6.8330 O         1 <0>         0.0000
  20933 WAT       -35.4320  -69.1660   -6.5830 O         1 <0>         0.0000
  20934 WAT       -35.4320  -69.1660   -6.3330 O         1 <0>         0.0000
  20935 WAT       -35.4320  -69.1660   -6.0830 O         1 <0>         0.0000
  20936 WAT       -35.4320  -69.1660   -5.8330 O         1 <0>         0.0000
  20937 WAT       -35.4320  -69.1660   -5.5830 O         1 <0>         0.0000
  20938 WAT       -35.4320  -69.1660   -5.3330 O         1 <0>         0.0000
  20939 WAT       -35.4320  -69.1660   -5.0830 O         1 <0>         0.0000
  20940 WAT       -35.4320  -69.1660   -4.8330 O         1 <0>         0.0000
  20941 WAT       -35.4320  -69.1660   -4.5830 O         1 <0>         0.0000
  20942 WAT       -35.4320  -69.1660   -4.3330 O         1 <0>         0.0000
  20943 WAT       -35.4320  -69.1660   -4.0830 O         1 <0>         0.0000
  20944 WAT       -35.4320  -69.1660   -3.8330 O         1 <0>         0.0000
  20945 WAT       -35.4320  -69.1660   -3.5830 O         1 <0>         0.0000
  20946 WAT       -35.4320  -69.1660   -3.3330 O         1 <0>         0.0000
  20947 WAT       -35.4320  -69.1660   -3.0830 O         1 <0>         0.0000
  20948 WAT       -35.4320  -69.1660   -2.8330 O         1 <0>         0.0000
  20949 WAT       -35.4320  -69.1660   -2.5830 O         1 <0>         0.0000
  20950 WAT       -35.4320  -69.1660   -2.3330 O         1 <0>         0.0000
  20951 WAT       -35.4320  -69.1660   -2.0830 O         1 <0>         0.0000
  20952 WAT       -35.4320  -69.1660   -1.8330 O         1 <0>         0.0000
  20953 WAT       -35.4320  -69.1660   -1.5830 O         1 <0>         0.0000
  20954 WAT       -35.4320  -69.1660   -1.3330 O         1 <0>         0.0000
  20955 WAT       -35.4320  -69.1660   -1.0830 O         1 <0>         0.0000
  20956 WAT       -35.4320  -69.1660   -0.8330 O         1 <0>         0.0000
  20957 WAT       -35.4320  -69.1660   -0.5830 O         1 <0>         0.0000
  20958 WAT       -35.4320  -69.1660   -0.3330 O         1 <0>         0.0000
  20959 WAT       -35.4320  -69.1660   -0.0830 O         1 <0>         0.0000
  20960 WAT       -35.4320  -68.9160   -9.8330 O         1 <0>         0.0000
  20961 WAT       -35.4320  -68.9160   -9.5830 O         1 <0>         0.0000
  20962 WAT       -35.4320  -68.9160   -9.3330 O         1 <0>         0.0000
  20963 WAT       -35.4320  -68.9160   -9.0830 O         1 <0>         0.0000
  20964 WAT       -35.4320  -68.9160   -8.8330 O         1 <0>         0.0000
  20965 WAT       -35.4320  -68.9160   -8.5830 O         1 <0>         0.0000
  20966 WAT       -35.4320  -68.9160   -8.3330 O         1 <0>         0.0000
  20967 WAT       -35.4320  -68.9160   -8.0830 O         1 <0>         0.0000
  20968 WAT       -35.4320  -68.9160   -7.8330 O         1 <0>         0.0000
  20969 WAT       -35.4320  -68.9160   -7.5830 O         1 <0>         0.0000
  20970 WAT       -35.4320  -68.9160   -7.3330 O         1 <0>         0.0000
  20971 WAT       -35.4320  -68.9160   -7.0830 O         1 <0>         0.0000
  20972 WAT       -35.4320  -68.9160   -6.8330 O         1 <0>         0.0000
  20973 WAT       -35.4320  -68.9160   -6.5830 O         1 <0>         0.0000
  20974 WAT       -35.4320  -68.9160   -6.3330 O         1 <0>         0.0000
  20975 WAT       -35.4320  -68.9160   -6.0830 O         1 <0>         0.0000
  20976 WAT       -35.4320  -68.9160   -5.8330 O         1 <0>         0.0000
  20977 WAT       -35.4320  -68.9160   -5.5830 O         1 <0>         0.0000
  20978 WAT       -35.4320  -68.9160   -5.3330 O         1 <0>         0.0000
  20979 WAT       -35.4320  -68.9160   -5.0830 O         1 <0>         0.0000
  20980 WAT       -35.4320  -68.9160   -4.8330 O         1 <0>         0.0000
  20981 WAT       -35.4320  -68.9160   -4.5830 O         1 <0>         0.0000
  20982 WAT       -35.4320  -68.9160   -4.3330 O         1 <0>         0.0000
  20983 WAT       -35.4320  -68.9160   -4.0830 O         1 <0>         0.0000
  20984 WAT       -35.4320  -68.9160   -3.8330 O         1 <0>         0.0000
  20985 WAT       -35.4320  -68.9160   -3.5830 O         1 <0>         0.0000
  20986 WAT       -35.4320  -68.9160   -3.3330 O         1 <0>         0.0000
  20987 WAT       -35.4320  -68.9160   -3.0830 O         1 <0>         0.0000
  20988 WAT       -35.4320  -68.9160   -2.8330 O         1 <0>         0.0000
  20989 WAT       -35.4320  -68.9160   -2.5830 O         1 <0>         0.0000
  20990 WAT       -35.4320  -68.9160   -2.3330 O         1 <0>         0.0000
  20991 WAT       -35.4320  -68.9160   -2.0830 O         1 <0>         0.0000
  20992 WAT       -35.4320  -68.9160   -1.8330 O         1 <0>         0.0000
  20993 WAT       -35.4320  -68.9160   -1.5830 O         1 <0>         0.0000
  20994 WAT       -35.4320  -68.9160   -1.3330 O         1 <0>         0.0000
  20995 WAT       -35.4320  -68.9160   -1.0830 O         1 <0>         0.0000
  20996 WAT       -35.4320  -68.9160   -0.8330 O         1 <0>         0.0000
  20997 WAT       -35.4320  -68.9160   -0.5830 O         1 <0>         0.0000
  20998 WAT       -35.4320  -68.9160   -0.3330 O         1 <0>         0.0000
  20999 WAT       -35.4320  -68.9160   -0.0830 O         1 <0>         0.0000
  21000 WAT       -35.1820  -77.4160   -9.8330 O         1 <0>         0.0000
  21001 WAT       -35.1820  -77.4160   -9.5830 O         1 <0>         0.0000
  21002 WAT       -35.1820  -77.4160   -9.3330 O         1 <0>         0.0000
  21003 WAT       -35.1820  -77.4160   -9.0830 O         1 <0>         0.0000
  21004 WAT       -35.1820  -77.4160   -8.8330 O         1 <0>         0.0000
  21005 WAT       -35.1820  -77.4160   -8.5830 O         1 <0>         0.0000
  21006 WAT       -35.1820  -77.4160   -8.3330 O         1 <0>         0.0000
  21007 WAT       -35.1820  -77.4160   -8.0830 O         1 <0>         0.0000
  21008 WAT       -35.1820  -77.4160   -7.8330 O         1 <0>         0.0000
  21009 WAT       -35.1820  -77.4160   -7.5830 O         1 <0>         0.0000
  21010 WAT       -35.1820  -77.4160   -7.3330 O         1 <0>         0.0000
  21011 WAT       -35.1820  -77.4160   -7.0830 O         1 <0>         0.0000
  21012 WAT       -35.1820  -77.4160   -6.8330 O         1 <0>         0.0000
  21013 WAT       -35.1820  -77.4160   -6.5830 O         1 <0>         0.0000
  21014 WAT       -35.1820  -77.4160   -6.3330 O         1 <0>         0.0000
  21015 WAT       -35.1820  -77.4160   -6.0830 O         1 <0>         0.0000
  21016 WAT       -35.1820  -77.4160   -5.8330 O         1 <0>         0.0000
  21017 WAT       -35.1820  -77.4160   -5.5830 O         1 <0>         0.0000
  21018 WAT       -35.1820  -77.4160   -5.3330 O         1 <0>         0.0000
  21019 WAT       -35.1820  -77.4160   -5.0830 O         1 <0>         0.0000
  21020 WAT       -35.1820  -77.4160   -4.8330 O         1 <0>         0.0000
  21021 WAT       -35.1820  -77.4160   -4.5830 O         1 <0>         0.0000
  21022 WAT       -35.1820  -77.4160   -4.3330 O         1 <0>         0.0000
  21023 WAT       -35.1820  -77.4160   -4.0830 O         1 <0>         0.0000
  21024 WAT       -35.1820  -77.4160   -3.8330 O         1 <0>         0.0000
  21025 WAT       -35.1820  -77.4160   -3.5830 O         1 <0>         0.0000
  21026 WAT       -35.1820  -77.4160   -3.3330 O         1 <0>         0.0000
  21027 WAT       -35.1820  -77.4160   -3.0830 O         1 <0>         0.0000
  21028 WAT       -35.1820  -77.4160   -2.8330 O         1 <0>         0.0000
  21029 WAT       -35.1820  -77.4160   -2.5830 O         1 <0>         0.0000
  21030 WAT       -35.1820  -77.4160   -2.3330 O         1 <0>         0.0000
  21031 WAT       -35.1820  -77.4160   -2.0830 O         1 <0>         0.0000
  21032 WAT       -35.1820  -77.4160   -1.8330 O         1 <0>         0.0000
  21033 WAT       -35.1820  -77.4160   -1.5830 O         1 <0>         0.0000
  21034 WAT       -35.1820  -77.4160   -1.3330 O         1 <0>         0.0000
  21035 WAT       -35.1820  -77.4160   -1.0830 O         1 <0>         0.0000
  21036 WAT       -35.1820  -77.4160   -0.8330 O         1 <0>         0.0000
  21037 WAT       -35.1820  -77.4160   -0.5830 O         1 <0>         0.0000
  21038 WAT       -35.1820  -77.4160   -0.3330 O         1 <0>         0.0000
  21039 WAT       -35.1820  -77.4160   -0.0830 O         1 <0>         0.0000
  21040 WAT       -35.1820  -77.1660   -9.8330 O         1 <0>         0.0000
  21041 WAT       -35.1820  -77.1660   -9.5830 O         1 <0>         0.0000
  21042 WAT       -35.1820  -77.1660   -9.3330 O         1 <0>         0.0000
  21043 WAT       -35.1820  -77.1660   -9.0830 O         1 <0>         0.0000
  21044 WAT       -35.1820  -77.1660   -8.8330 O         1 <0>         0.0000
  21045 WAT       -35.1820  -77.1660   -8.5830 O         1 <0>         0.0000
  21046 WAT       -35.1820  -77.1660   -8.3330 O         1 <0>         0.0000
  21047 WAT       -35.1820  -77.1660   -8.0830 O         1 <0>         0.0000
  21048 WAT       -35.1820  -77.1660   -7.8330 O         1 <0>         0.0000
  21049 WAT       -35.1820  -77.1660   -7.5830 O         1 <0>         0.0000
  21050 WAT       -35.1820  -77.1660   -7.3330 O         1 <0>         0.0000
  21051 WAT       -35.1820  -77.1660   -7.0830 O         1 <0>         0.0000
  21052 WAT       -35.1820  -77.1660   -6.8330 O         1 <0>         0.0000
  21053 WAT       -35.1820  -77.1660   -6.5830 O         1 <0>         0.0000
  21054 WAT       -35.1820  -77.1660   -6.3330 O         1 <0>         0.0000
  21055 WAT       -35.1820  -77.1660   -6.0830 O         1 <0>         0.0000
  21056 WAT       -35.1820  -77.1660   -5.8330 O         1 <0>         0.0000
  21057 WAT       -35.1820  -77.1660   -5.5830 O         1 <0>         0.0000
  21058 WAT       -35.1820  -77.1660   -5.3330 O         1 <0>         0.0000
  21059 WAT       -35.1820  -77.1660   -5.0830 O         1 <0>         0.0000
  21060 WAT       -35.1820  -77.1660   -4.8330 O         1 <0>         0.0000
  21061 WAT       -35.1820  -77.1660   -4.5830 O         1 <0>         0.0000
  21062 WAT       -35.1820  -77.1660   -4.3330 O         1 <0>         0.0000
  21063 WAT       -35.1820  -77.1660   -4.0830 O         1 <0>         0.0000
  21064 WAT       -35.1820  -77.1660   -3.8330 O         1 <0>         0.0000
  21065 WAT       -35.1820  -77.1660   -3.5830 O         1 <0>         0.0000
  21066 WAT       -35.1820  -77.1660   -3.3330 O         1 <0>         0.0000
  21067 WAT       -35.1820  -77.1660   -3.0830 O         1 <0>         0.0000
  21068 WAT       -35.1820  -77.1660   -2.8330 O         1 <0>         0.0000
  21069 WAT       -35.1820  -77.1660   -2.5830 O         1 <0>         0.0000
  21070 WAT       -35.1820  -77.1660   -2.3330 O         1 <0>         0.0000
  21071 WAT       -35.1820  -77.1660   -2.0830 O         1 <0>         0.0000
  21072 WAT       -35.1820  -77.1660   -1.8330 O         1 <0>         0.0000
  21073 WAT       -35.1820  -77.1660   -1.5830 O         1 <0>         0.0000
  21074 WAT       -35.1820  -77.1660   -1.3330 O         1 <0>         0.0000
  21075 WAT       -35.1820  -77.1660   -1.0830 O         1 <0>         0.0000
  21076 WAT       -35.1820  -77.1660   -0.8330 O         1 <0>         0.0000
  21077 WAT       -35.1820  -77.1660   -0.5830 O         1 <0>         0.0000
  21078 WAT       -35.1820  -77.1660   -0.3330 O         1 <0>         0.0000
  21079 WAT       -35.1820  -77.1660   -0.0830 O         1 <0>         0.0000
  21080 WAT       -35.1820  -76.9160   -9.8330 O         1 <0>         0.0000
  21081 WAT       -35.1820  -76.9160   -9.5830 O         1 <0>         0.0000
  21082 WAT       -35.1820  -76.9160   -9.3330 O         1 <0>         0.0000
  21083 WAT       -35.1820  -76.9160   -9.0830 O         1 <0>         0.0000
  21084 WAT       -35.1820  -76.9160   -8.8330 O         1 <0>         0.0000
  21085 WAT       -35.1820  -76.9160   -8.5830 O         1 <0>         0.0000
  21086 WAT       -35.1820  -76.9160   -8.3330 O         1 <0>         0.0000
  21087 WAT       -35.1820  -76.9160   -8.0830 O         1 <0>         0.0000
  21088 WAT       -35.1820  -76.9160   -7.8330 O         1 <0>         0.0000
  21089 WAT       -35.1820  -76.9160   -7.5830 O         1 <0>         0.0000
  21090 WAT       -35.1820  -76.9160   -7.3330 O         1 <0>         0.0000
  21091 WAT       -35.1820  -76.9160   -7.0830 O         1 <0>         0.0000
  21092 WAT       -35.1820  -76.9160   -6.8330 O         1 <0>         0.0000
  21093 WAT       -35.1820  -76.9160   -6.5830 O         1 <0>         0.0000
  21094 WAT       -35.1820  -76.9160   -6.3330 O         1 <0>         0.0000
  21095 WAT       -35.1820  -76.9160   -6.0830 O         1 <0>         0.0000
  21096 WAT       -35.1820  -76.9160   -5.8330 O         1 <0>         0.0000
  21097 WAT       -35.1820  -76.9160   -5.5830 O         1 <0>         0.0000
  21098 WAT       -35.1820  -76.9160   -5.3330 O         1 <0>         0.0000
  21099 WAT       -35.1820  -76.9160   -5.0830 O         1 <0>         0.0000
  21100 WAT       -35.1820  -76.9160   -4.8330 O         1 <0>         0.0000
  21101 WAT       -35.1820  -76.9160   -4.5830 O         1 <0>         0.0000
  21102 WAT       -35.1820  -76.9160   -4.3330 O         1 <0>         0.0000
  21103 WAT       -35.1820  -76.9160   -4.0830 O         1 <0>         0.0000
  21104 WAT       -35.1820  -76.9160   -3.8330 O         1 <0>         0.0000
  21105 WAT       -35.1820  -76.9160   -3.5830 O         1 <0>         0.0000
  21106 WAT       -35.1820  -76.9160   -3.3330 O         1 <0>         0.0000
  21107 WAT       -35.1820  -76.9160   -3.0830 O         1 <0>         0.0000
  21108 WAT       -35.1820  -76.9160   -2.8330 O         1 <0>         0.0000
  21109 WAT       -35.1820  -76.9160   -2.5830 O         1 <0>         0.0000
  21110 WAT       -35.1820  -76.9160   -2.3330 O         1 <0>         0.0000
  21111 WAT       -35.1820  -76.9160   -2.0830 O         1 <0>         0.0000
  21112 WAT       -35.1820  -76.9160   -1.8330 O         1 <0>         0.0000
  21113 WAT       -35.1820  -76.9160   -1.5830 O         1 <0>         0.0000
  21114 WAT       -35.1820  -76.9160   -1.3330 O         1 <0>         0.0000
  21115 WAT       -35.1820  -76.9160   -1.0830 O         1 <0>         0.0000
  21116 WAT       -35.1820  -76.9160   -0.8330 O         1 <0>         0.0000
  21117 WAT       -35.1820  -76.9160   -0.5830 O         1 <0>         0.0000
  21118 WAT       -35.1820  -76.9160   -0.3330 O         1 <0>         0.0000
  21119 WAT       -35.1820  -76.9160   -0.0830 O         1 <0>         0.0000
  21120 WAT       -35.1820  -76.6660   -9.8330 O         1 <0>         0.0000
  21121 WAT       -35.1820  -76.6660   -9.5830 O         1 <0>         0.0000
  21122 WAT       -35.1820  -76.6660   -9.3330 O         1 <0>         0.0000
  21123 WAT       -35.1820  -76.6660   -9.0830 O         1 <0>         0.0000
  21124 WAT       -35.1820  -76.6660   -8.8330 O         1 <0>         0.0000
  21125 WAT       -35.1820  -76.6660   -8.5830 O         1 <0>         0.0000
  21126 WAT       -35.1820  -76.6660   -8.3330 O         1 <0>         0.0000
  21127 WAT       -35.1820  -76.6660   -8.0830 O         1 <0>         0.0000
  21128 WAT       -35.1820  -76.6660   -7.8330 O         1 <0>         0.0000
  21129 WAT       -35.1820  -76.6660   -7.5830 O         1 <0>         0.0000
  21130 WAT       -35.1820  -76.6660   -7.3330 O         1 <0>         0.0000
  21131 WAT       -35.1820  -76.6660   -7.0830 O         1 <0>         0.0000
  21132 WAT       -35.1820  -76.6660   -6.8330 O         1 <0>         0.0000
  21133 WAT       -35.1820  -76.6660   -6.5830 O         1 <0>         0.0000
  21134 WAT       -35.1820  -76.6660   -6.3330 O         1 <0>         0.0000
  21135 WAT       -35.1820  -76.6660   -6.0830 O         1 <0>         0.0000
  21136 WAT       -35.1820  -76.6660   -5.8330 O         1 <0>         0.0000
  21137 WAT       -35.1820  -76.6660   -5.5830 O         1 <0>         0.0000
  21138 WAT       -35.1820  -76.6660   -5.3330 O         1 <0>         0.0000
  21139 WAT       -35.1820  -76.6660   -5.0830 O         1 <0>         0.0000
  21140 WAT       -35.1820  -76.6660   -4.8330 O         1 <0>         0.0000
  21141 WAT       -35.1820  -76.6660   -4.5830 O         1 <0>         0.0000
  21142 WAT       -35.1820  -76.6660   -4.3330 O         1 <0>         0.0000
  21143 WAT       -35.1820  -76.6660   -4.0830 O         1 <0>         0.0000
  21144 WAT       -35.1820  -76.6660   -3.8330 O         1 <0>         0.0000
  21145 WAT       -35.1820  -76.6660   -3.5830 O         1 <0>         0.0000
  21146 WAT       -35.1820  -76.6660   -3.3330 O         1 <0>         0.0000
  21147 WAT       -35.1820  -76.6660   -3.0830 O         1 <0>         0.0000
  21148 WAT       -35.1820  -76.6660   -2.8330 O         1 <0>         0.0000
  21149 WAT       -35.1820  -76.6660   -2.5830 O         1 <0>         0.0000
  21150 WAT       -35.1820  -76.6660   -2.3330 O         1 <0>         0.0000
  21151 WAT       -35.1820  -76.6660   -2.0830 O         1 <0>         0.0000
  21152 WAT       -35.1820  -76.6660   -1.8330 O         1 <0>         0.0000
  21153 WAT       -35.1820  -76.6660   -1.5830 O         1 <0>         0.0000
  21154 WAT       -35.1820  -76.6660   -1.3330 O         1 <0>         0.0000
  21155 WAT       -35.1820  -76.6660   -1.0830 O         1 <0>         0.0000
  21156 WAT       -35.1820  -76.6660   -0.8330 O         1 <0>         0.0000
  21157 WAT       -35.1820  -76.6660   -0.5830 O         1 <0>         0.0000
  21158 WAT       -35.1820  -76.6660   -0.3330 O         1 <0>         0.0000
  21159 WAT       -35.1820  -76.6660   -0.0830 O         1 <0>         0.0000
  21160 WAT       -35.1820  -76.4160   -9.8330 O         1 <0>         0.0000
  21161 WAT       -35.1820  -76.4160   -9.5830 O         1 <0>         0.0000
  21162 WAT       -35.1820  -76.4160   -9.3330 O         1 <0>         0.0000
  21163 WAT       -35.1820  -76.4160   -9.0830 O         1 <0>         0.0000
  21164 WAT       -35.1820  -76.4160   -8.8330 O         1 <0>         0.0000
  21165 WAT       -35.1820  -76.4160   -8.5830 O         1 <0>         0.0000
  21166 WAT       -35.1820  -76.4160   -8.3330 O         1 <0>         0.0000
  21167 WAT       -35.1820  -76.4160   -8.0830 O         1 <0>         0.0000
  21168 WAT       -35.1820  -76.4160   -7.8330 O         1 <0>         0.0000
  21169 WAT       -35.1820  -76.4160   -7.5830 O         1 <0>         0.0000
  21170 WAT       -35.1820  -76.4160   -7.3330 O         1 <0>         0.0000
  21171 WAT       -35.1820  -76.4160   -7.0830 O         1 <0>         0.0000
  21172 WAT       -35.1820  -76.4160   -6.8330 O         1 <0>         0.0000
  21173 WAT       -35.1820  -76.4160   -6.5830 O         1 <0>         0.0000
  21174 WAT       -35.1820  -76.4160   -6.3330 O         1 <0>         0.0000
  21175 WAT       -35.1820  -76.4160   -6.0830 O         1 <0>         0.0000
  21176 WAT       -35.1820  -76.4160   -5.8330 O         1 <0>         0.0000
  21177 WAT       -35.1820  -76.4160   -5.5830 O         1 <0>         0.0000
  21178 WAT       -35.1820  -76.4160   -5.3330 O         1 <0>         0.0000
  21179 WAT       -35.1820  -76.4160   -5.0830 O         1 <0>         0.0000
  21180 WAT       -35.1820  -76.4160   -4.8330 O         1 <0>         0.0000
  21181 WAT       -35.1820  -76.4160   -4.5830 O         1 <0>         0.0000
  21182 WAT       -35.1820  -76.4160   -4.3330 O         1 <0>         0.0000
  21183 WAT       -35.1820  -76.4160   -4.0830 O         1 <0>         0.0000
  21184 WAT       -35.1820  -76.4160   -3.8330 O         1 <0>         0.0001
  21185 WAT       -35.1820  -76.4160   -3.5830 O         1 <0>         0.0001
  21186 WAT       -35.1820  -76.4160   -3.3330 O         1 <0>         0.0002
  21187 WAT       -35.1820  -76.4160   -3.0830 O         1 <0>         0.0002
  21188 WAT       -35.1820  -76.4160   -2.8330 O         1 <0>         0.0001
  21189 WAT       -35.1820  -76.4160   -2.5830 O         1 <0>         0.0000
  21190 WAT       -35.1820  -76.4160   -2.3330 O         1 <0>         0.0000
  21191 WAT       -35.1820  -76.4160   -2.0830 O         1 <0>         0.0000
  21192 WAT       -35.1820  -76.4160   -1.8330 O         1 <0>         0.0000
  21193 WAT       -35.1820  -76.4160   -1.5830 O         1 <0>         0.0000
  21194 WAT       -35.1820  -76.4160   -1.3330 O         1 <0>         0.0000
  21195 WAT       -35.1820  -76.4160   -1.0830 O         1 <0>         0.0000
  21196 WAT       -35.1820  -76.4160   -0.8330 O         1 <0>         0.0000
  21197 WAT       -35.1820  -76.4160   -0.5830 O         1 <0>         0.0000
  21198 WAT       -35.1820  -76.4160   -0.3330 O         1 <0>         0.0000
  21199 WAT       -35.1820  -76.4160   -0.0830 O         1 <0>         0.0000
  21200 WAT       -35.1820  -76.1660   -9.8330 O         1 <0>         0.0000
  21201 WAT       -35.1820  -76.1660   -9.5830 O         1 <0>         0.0000
  21202 WAT       -35.1820  -76.1660   -9.3330 O         1 <0>         0.0000
  21203 WAT       -35.1820  -76.1660   -9.0830 O         1 <0>         0.0000
  21204 WAT       -35.1820  -76.1660   -8.8330 O         1 <0>         0.0000
  21205 WAT       -35.1820  -76.1660   -8.5830 O         1 <0>         0.0000
  21206 WAT       -35.1820  -76.1660   -8.3330 O         1 <0>         0.0000
  21207 WAT       -35.1820  -76.1660   -8.0830 O         1 <0>         0.0000
  21208 WAT       -35.1820  -76.1660   -7.8330 O         1 <0>         0.0000
  21209 WAT       -35.1820  -76.1660   -7.5830 O         1 <0>         0.0000
  21210 WAT       -35.1820  -76.1660   -7.3330 O         1 <0>         0.0000
  21211 WAT       -35.1820  -76.1660   -7.0830 O         1 <0>         0.0000
  21212 WAT       -35.1820  -76.1660   -6.8330 O         1 <0>         0.0000
  21213 WAT       -35.1820  -76.1660   -6.5830 O         1 <0>         0.0000
  21214 WAT       -35.1820  -76.1660   -6.3330 O         1 <0>         0.0000
  21215 WAT       -35.1820  -76.1660   -6.0830 O         1 <0>         0.0000
  21216 WAT       -35.1820  -76.1660   -5.8330 O         1 <0>         0.0000
  21217 WAT       -35.1820  -76.1660   -5.5830 O         1 <0>         0.0000
  21218 WAT       -35.1820  -76.1660   -5.3330 O         1 <0>         0.0000
  21219 WAT       -35.1820  -76.1660   -5.0830 O         1 <0>         0.0000
  21220 WAT       -35.1820  -76.1660   -4.8330 O         1 <0>         0.0000
  21221 WAT       -35.1820  -76.1660   -4.5830 O         1 <0>         0.0000
  21222 WAT       -35.1820  -76.1660   -4.3330 O         1 <0>         0.0000
  21223 WAT       -35.1820  -76.1660   -4.0830 O         1 <0>         0.0001
  21224 WAT       -35.1820  -76.1660   -3.8330 O         1 <0>         0.0004
  21225 WAT       -35.1820  -76.1660   -3.5830 O         1 <0>         0.0008
  21226 WAT       -35.1820  -76.1660   -3.3330 O         1 <0>         0.0011
  21227 WAT       -35.1820  -76.1660   -3.0830 O         1 <0>         0.0010
  21228 WAT       -35.1820  -76.1660   -2.8330 O         1 <0>         0.0005
  21229 WAT       -35.1820  -76.1660   -2.5830 O         1 <0>         0.0001
  21230 WAT       -35.1820  -76.1660   -2.3330 O         1 <0>         0.0000
  21231 WAT       -35.1820  -76.1660   -2.0830 O         1 <0>         0.0000
  21232 WAT       -35.1820  -76.1660   -1.8330 O         1 <0>         0.0000
  21233 WAT       -35.1820  -76.1660   -1.5830 O         1 <0>         0.0000
  21234 WAT       -35.1820  -76.1660   -1.3330 O         1 <0>         0.0000
  21235 WAT       -35.1820  -76.1660   -1.0830 O         1 <0>         0.0000
  21236 WAT       -35.1820  -76.1660   -0.8330 O         1 <0>         0.0000
  21237 WAT       -35.1820  -76.1660   -0.5830 O         1 <0>         0.0000
  21238 WAT       -35.1820  -76.1660   -0.3330 O         1 <0>         0.0000
  21239 WAT       -35.1820  -76.1660   -0.0830 O         1 <0>         0.0000
  21240 WAT       -35.1820  -75.9160   -9.8330 O         1 <0>         0.0000
  21241 WAT       -35.1820  -75.9160   -9.5830 O         1 <0>         0.0000
  21242 WAT       -35.1820  -75.9160   -9.3330 O         1 <0>         0.0000
  21243 WAT       -35.1820  -75.9160   -9.0830 O         1 <0>         0.0000
  21244 WAT       -35.1820  -75.9160   -8.8330 O         1 <0>         0.0000
  21245 WAT       -35.1820  -75.9160   -8.5830 O         1 <0>         0.0000
  21246 WAT       -35.1820  -75.9160   -8.3330 O         1 <0>         0.0000
  21247 WAT       -35.1820  -75.9160   -8.0830 O         1 <0>         0.0000
  21248 WAT       -35.1820  -75.9160   -7.8330 O         1 <0>         0.0000
  21249 WAT       -35.1820  -75.9160   -7.5830 O         1 <0>         0.0000
  21250 WAT       -35.1820  -75.9160   -7.3330 O         1 <0>         0.0000
  21251 WAT       -35.1820  -75.9160   -7.0830 O         1 <0>         0.0000
  21252 WAT       -35.1820  -75.9160   -6.8330 O         1 <0>         0.0000
  21253 WAT       -35.1820  -75.9160   -6.5830 O         1 <0>         0.0000
  21254 WAT       -35.1820  -75.9160   -6.3330 O         1 <0>         0.0000
  21255 WAT       -35.1820  -75.9160   -6.0830 O         1 <0>         0.0000
  21256 WAT       -35.1820  -75.9160   -5.8330 O         1 <0>         0.0000
  21257 WAT       -35.1820  -75.9160   -5.5830 O         1 <0>         0.0000
  21258 WAT       -35.1820  -75.9160   -5.3330 O         1 <0>         0.0000
  21259 WAT       -35.1820  -75.9160   -5.0830 O         1 <0>         0.0000
  21260 WAT       -35.1820  -75.9160   -4.8330 O         1 <0>         0.0000
  21261 WAT       -35.1820  -75.9160   -4.5830 O         1 <0>         0.0000
  21262 WAT       -35.1820  -75.9160   -4.3330 O         1 <0>         0.0001
  21263 WAT       -35.1820  -75.9160   -4.0830 O         1 <0>         0.0005
  21264 WAT       -35.1820  -75.9160   -3.8330 O         1 <0>         0.0017
  21265 WAT       -35.1820  -75.9160   -3.5830 O         1 <0>         0.0033
  21266 WAT       -35.1820  -75.9160   -3.3330 O         1 <0>         0.0043
  21267 WAT       -35.1820  -75.9160   -3.0830 O         1 <0>         0.0036
  21268 WAT       -35.1820  -75.9160   -2.8330 O         1 <0>         0.0020
  21269 WAT       -35.1820  -75.9160   -2.5830 O         1 <0>         0.0006
  21270 WAT       -35.1820  -75.9160   -2.3330 O         1 <0>         0.0001
  21271 WAT       -35.1820  -75.9160   -2.0830 O         1 <0>         0.0000
  21272 WAT       -35.1820  -75.9160   -1.8330 O         1 <0>         0.0000
  21273 WAT       -35.1820  -75.9160   -1.5830 O         1 <0>         0.0000
  21274 WAT       -35.1820  -75.9160   -1.3330 O         1 <0>         0.0000
  21275 WAT       -35.1820  -75.9160   -1.0830 O         1 <0>         0.0000
  21276 WAT       -35.1820  -75.9160   -0.8330 O         1 <0>         0.0000
  21277 WAT       -35.1820  -75.9160   -0.5830 O         1 <0>         0.0000
  21278 WAT       -35.1820  -75.9160   -0.3330 O         1 <0>         0.0000
  21279 WAT       -35.1820  -75.9160   -0.0830 O         1 <0>         0.0000
  21280 WAT       -35.1820  -75.6660   -9.8330 O         1 <0>         0.0000
  21281 WAT       -35.1820  -75.6660   -9.5830 O         1 <0>         0.0000
  21282 WAT       -35.1820  -75.6660   -9.3330 O         1 <0>         0.0000
  21283 WAT       -35.1820  -75.6660   -9.0830 O         1 <0>         0.0000
  21284 WAT       -35.1820  -75.6660   -8.8330 O         1 <0>         0.0000
  21285 WAT       -35.1820  -75.6660   -8.5830 O         1 <0>         0.0000
  21286 WAT       -35.1820  -75.6660   -8.3330 O         1 <0>         0.0000
  21287 WAT       -35.1820  -75.6660   -8.0830 O         1 <0>         0.0000
  21288 WAT       -35.1820  -75.6660   -7.8330 O         1 <0>         0.0000
  21289 WAT       -35.1820  -75.6660   -7.5830 O         1 <0>         0.0000
  21290 WAT       -35.1820  -75.6660   -7.3330 O         1 <0>         0.0000
  21291 WAT       -35.1820  -75.6660   -7.0830 O         1 <0>         0.0000
  21292 WAT       -35.1820  -75.6660   -6.8330 O         1 <0>         0.0000
  21293 WAT       -35.1820  -75.6660   -6.5830 O         1 <0>         0.0000
  21294 WAT       -35.1820  -75.6660   -6.3330 O         1 <0>         0.0000
  21295 WAT       -35.1820  -75.6660   -6.0830 O         1 <0>         0.0000
  21296 WAT       -35.1820  -75.6660   -5.8330 O         1 <0>         0.0000
  21297 WAT       -35.1820  -75.6660   -5.5830 O         1 <0>         0.0000
  21298 WAT       -35.1820  -75.6660   -5.3330 O         1 <0>         0.0000
  21299 WAT       -35.1820  -75.6660   -5.0830 O         1 <0>         0.0000
  21300 WAT       -35.1820  -75.6660   -4.8330 O         1 <0>         0.0000
  21301 WAT       -35.1820  -75.6660   -4.5830 O         1 <0>         0.0001
  21302 WAT       -35.1820  -75.6660   -4.3330 O         1 <0>         0.0006
  21303 WAT       -35.1820  -75.6660   -4.0830 O         1 <0>         0.0023
  21304 WAT       -35.1820  -75.6660   -3.8330 O         1 <0>         0.0059
  21305 WAT       -35.1820  -75.6660   -3.5830 O         1 <0>         0.0102
  21306 WAT       -35.1820  -75.6660   -3.3330 O         1 <0>         0.0120
  21307 WAT       -35.1820  -75.6660   -3.0830 O         1 <0>         0.0097
  21308 WAT       -35.1820  -75.6660   -2.8330 O         1 <0>         0.0053
  21309 WAT       -35.1820  -75.6660   -2.5830 O         1 <0>         0.0018
  21310 WAT       -35.1820  -75.6660   -2.3330 O         1 <0>         0.0004
  21311 WAT       -35.1820  -75.6660   -2.0830 O         1 <0>         0.0000
  21312 WAT       -35.1820  -75.6660   -1.8330 O         1 <0>         0.0000
  21313 WAT       -35.1820  -75.6660   -1.5830 O         1 <0>         0.0000
  21314 WAT       -35.1820  -75.6660   -1.3330 O         1 <0>         0.0000
  21315 WAT       -35.1820  -75.6660   -1.0830 O         1 <0>         0.0000
  21316 WAT       -35.1820  -75.6660   -0.8330 O         1 <0>         0.0000
  21317 WAT       -35.1820  -75.6660   -0.5830 O         1 <0>         0.0000
  21318 WAT       -35.1820  -75.6660   -0.3330 O         1 <0>         0.0000
  21319 WAT       -35.1820  -75.6660   -0.0830 O         1 <0>         0.0000
  21320 WAT       -35.1820  -75.4160   -9.8330 O         1 <0>         0.0000
  21321 WAT       -35.1820  -75.4160   -9.5830 O         1 <0>         0.0000
  21322 WAT       -35.1820  -75.4160   -9.3330 O         1 <0>         0.0000
  21323 WAT       -35.1820  -75.4160   -9.0830 O         1 <0>         0.0000
  21324 WAT       -35.1820  -75.4160   -8.8330 O         1 <0>         0.0000
  21325 WAT       -35.1820  -75.4160   -8.5830 O         1 <0>         0.0000
  21326 WAT       -35.1820  -75.4160   -8.3330 O         1 <0>         0.0000
  21327 WAT       -35.1820  -75.4160   -8.0830 O         1 <0>         0.0000
  21328 WAT       -35.1820  -75.4160   -7.8330 O         1 <0>         0.0000
  21329 WAT       -35.1820  -75.4160   -7.5830 O         1 <0>         0.0000
  21330 WAT       -35.1820  -75.4160   -7.3330 O         1 <0>         0.0000
  21331 WAT       -35.1820  -75.4160   -7.0830 O         1 <0>         0.0000
  21332 WAT       -35.1820  -75.4160   -6.8330 O         1 <0>         0.0000
  21333 WAT       -35.1820  -75.4160   -6.5830 O         1 <0>         0.0000
  21334 WAT       -35.1820  -75.4160   -6.3330 O         1 <0>         0.0000
  21335 WAT       -35.1820  -75.4160   -6.0830 O         1 <0>         0.0000
  21336 WAT       -35.1820  -75.4160   -5.8330 O         1 <0>         0.0000
  21337 WAT       -35.1820  -75.4160   -5.5830 O         1 <0>         0.0000
  21338 WAT       -35.1820  -75.4160   -5.3330 O         1 <0>         0.0000
  21339 WAT       -35.1820  -75.4160   -5.0830 O         1 <0>         0.0000
  21340 WAT       -35.1820  -75.4160   -4.8330 O         1 <0>         0.0001
  21341 WAT       -35.1820  -75.4160   -4.5830 O         1 <0>         0.0005
  21342 WAT       -35.1820  -75.4160   -4.3330 O         1 <0>         0.0022
  21343 WAT       -35.1820  -75.4160   -4.0830 O         1 <0>         0.0069
  21344 WAT       -35.1820  -75.4160   -3.8330 O         1 <0>         0.0156
  21345 WAT       -35.1820  -75.4160   -3.5830 O         1 <0>         0.0248
  21346 WAT       -35.1820  -75.4160   -3.3330 O         1 <0>         0.0274
  21347 WAT       -35.1820  -75.4160   -3.0830 O         1 <0>         0.0211
  21348 WAT       -35.1820  -75.4160   -2.8330 O         1 <0>         0.0111
  21349 WAT       -35.1820  -75.4160   -2.5830 O         1 <0>         0.0039
  21350 WAT       -35.1820  -75.4160   -2.3330 O         1 <0>         0.0007
  21351 WAT       -35.1820  -75.4160   -2.0830 O         1 <0>         0.0001
  21352 WAT       -35.1820  -75.4160   -1.8330 O         1 <0>         0.0000
  21353 WAT       -35.1820  -75.4160   -1.5830 O         1 <0>         0.0000
  21354 WAT       -35.1820  -75.4160   -1.3330 O         1 <0>         0.0000
  21355 WAT       -35.1820  -75.4160   -1.0830 O         1 <0>         0.0000
  21356 WAT       -35.1820  -75.4160   -0.8330 O         1 <0>         0.0000
  21357 WAT       -35.1820  -75.4160   -0.5830 O         1 <0>         0.0000
  21358 WAT       -35.1820  -75.4160   -0.3330 O         1 <0>         0.0000
  21359 WAT       -35.1820  -75.4160   -0.0830 O         1 <0>         0.0000
  21360 WAT       -35.1820  -75.1660   -9.8330 O         1 <0>         0.0000
  21361 WAT       -35.1820  -75.1660   -9.5830 O         1 <0>         0.0000
  21362 WAT       -35.1820  -75.1660   -9.3330 O         1 <0>         0.0000
  21363 WAT       -35.1820  -75.1660   -9.0830 O         1 <0>         0.0000
  21364 WAT       -35.1820  -75.1660   -8.8330 O         1 <0>         0.0000
  21365 WAT       -35.1820  -75.1660   -8.5830 O         1 <0>         0.0000
  21366 WAT       -35.1820  -75.1660   -8.3330 O         1 <0>         0.0000
  21367 WAT       -35.1820  -75.1660   -8.0830 O         1 <0>         0.0000
  21368 WAT       -35.1820  -75.1660   -7.8330 O         1 <0>         0.0000
  21369 WAT       -35.1820  -75.1660   -7.5830 O         1 <0>         0.0000
  21370 WAT       -35.1820  -75.1660   -7.3330 O         1 <0>         0.0000
  21371 WAT       -35.1820  -75.1660   -7.0830 O         1 <0>         0.0000
  21372 WAT       -35.1820  -75.1660   -6.8330 O         1 <0>         0.0001
  21373 WAT       -35.1820  -75.1660   -6.5830 O         1 <0>         0.0003
  21374 WAT       -35.1820  -75.1660   -6.3330 O         1 <0>         0.0006
  21375 WAT       -35.1820  -75.1660   -6.0830 O         1 <0>         0.0008
  21376 WAT       -35.1820  -75.1660   -5.8330 O         1 <0>         0.0007
  21377 WAT       -35.1820  -75.1660   -5.5830 O         1 <0>         0.0005
  21378 WAT       -35.1820  -75.1660   -5.3330 O         1 <0>         0.0003
  21379 WAT       -35.1820  -75.1660   -5.0830 O         1 <0>         0.0003
  21380 WAT       -35.1820  -75.1660   -4.8330 O         1 <0>         0.0005
  21381 WAT       -35.1820  -75.1660   -4.5830 O         1 <0>         0.0016
  21382 WAT       -35.1820  -75.1660   -4.3330 O         1 <0>         0.0055
  21383 WAT       -35.1820  -75.1660   -4.0830 O         1 <0>         0.0156
  21384 WAT       -35.1820  -75.1660   -3.8330 O         1 <0>         0.0329
  21385 WAT       -35.1820  -75.1660   -3.5830 O         1 <0>         0.0501
  21386 WAT       -35.1820  -75.1660   -3.3330 O         1 <0>         0.0536
  21387 WAT       -35.1820  -75.1660   -3.0830 O         1 <0>         0.0401
  21388 WAT       -35.1820  -75.1660   -2.8330 O         1 <0>         0.0208
  21389 WAT       -35.1820  -75.1660   -2.5830 O         1 <0>         0.0072
  21390 WAT       -35.1820  -75.1660   -2.3330 O         1 <0>         0.0015
  21391 WAT       -35.1820  -75.1660   -2.0830 O         1 <0>         0.0001
  21392 WAT       -35.1820  -75.1660   -1.8330 O         1 <0>         0.0000
  21393 WAT       -35.1820  -75.1660   -1.5830 O         1 <0>         0.0000
  21394 WAT       -35.1820  -75.1660   -1.3330 O         1 <0>         0.0000
  21395 WAT       -35.1820  -75.1660   -1.0830 O         1 <0>         0.0000
  21396 WAT       -35.1820  -75.1660   -0.8330 O         1 <0>         0.0000
  21397 WAT       -35.1820  -75.1660   -0.5830 O         1 <0>         0.0000
  21398 WAT       -35.1820  -75.1660   -0.3330 O         1 <0>         0.0000
  21399 WAT       -35.1820  -75.1660   -0.0830 O         1 <0>         0.0000
  21400 WAT       -35.1820  -74.9160   -9.8330 O         1 <0>         0.0000
  21401 WAT       -35.1820  -74.9160   -9.5830 O         1 <0>         0.0000
  21402 WAT       -35.1820  -74.9160   -9.3330 O         1 <0>         0.0000
  21403 WAT       -35.1820  -74.9160   -9.0830 O         1 <0>         0.0000
  21404 WAT       -35.1820  -74.9160   -8.8330 O         1 <0>         0.0000
  21405 WAT       -35.1820  -74.9160   -8.5830 O         1 <0>         0.0000
  21406 WAT       -35.1820  -74.9160   -8.3330 O         1 <0>         0.0000
  21407 WAT       -35.1820  -74.9160   -8.0830 O         1 <0>         0.0000
  21408 WAT       -35.1820  -74.9160   -7.8330 O         1 <0>         0.0000
  21409 WAT       -35.1820  -74.9160   -7.5830 O         1 <0>         0.0000
  21410 WAT       -35.1820  -74.9160   -7.3330 O         1 <0>         0.0000
  21411 WAT       -35.1820  -74.9160   -7.0830 O         1 <0>         0.0001
  21412 WAT       -35.1820  -74.9160   -6.8330 O         1 <0>         0.0005
  21413 WAT       -35.1820  -74.9160   -6.5830 O         1 <0>         0.0016
  21414 WAT       -35.1820  -74.9160   -6.3330 O         1 <0>         0.0033
  21415 WAT       -35.1820  -74.9160   -6.0830 O         1 <0>         0.0045
  21416 WAT       -35.1820  -74.9160   -5.8330 O         1 <0>         0.0043
  21417 WAT       -35.1820  -74.9160   -5.5830 O         1 <0>         0.0033
  21418 WAT       -35.1820  -74.9160   -5.3330 O         1 <0>         0.0024
  21419 WAT       -35.1820  -74.9160   -5.0830 O         1 <0>         0.0019
  21420 WAT       -35.1820  -74.9160   -4.8330 O         1 <0>         0.0022
  21421 WAT       -35.1820  -74.9160   -4.5830 O         1 <0>         0.0042
  21422 WAT       -35.1820  -74.9160   -4.3330 O         1 <0>         0.0109
  21423 WAT       -35.1820  -74.9160   -4.0830 O         1 <0>         0.0276
  21424 WAT       -35.1820  -74.9160   -3.8330 O         1 <0>         0.0565
  21425 WAT       -35.1820  -74.9160   -3.5830 O         1 <0>         0.0852
  21426 WAT       -35.1820  -74.9160   -3.3330 O         1 <0>         0.0915
  21427 WAT       -35.1820  -74.9160   -3.0830 O         1 <0>         0.0688
  21428 WAT       -35.1820  -74.9160   -2.8330 O         1 <0>         0.0359
  21429 WAT       -35.1820  -74.9160   -2.5830 O         1 <0>         0.0126
  21430 WAT       -35.1820  -74.9160   -2.3330 O         1 <0>         0.0027
  21431 WAT       -35.1820  -74.9160   -2.0830 O         1 <0>         0.0003
  21432 WAT       -35.1820  -74.9160   -1.8330 O         1 <0>         0.0000
  21433 WAT       -35.1820  -74.9160   -1.5830 O         1 <0>         0.0000
  21434 WAT       -35.1820  -74.9160   -1.3330 O         1 <0>         0.0000
  21435 WAT       -35.1820  -74.9160   -1.0830 O         1 <0>         0.0000
  21436 WAT       -35.1820  -74.9160   -0.8330 O         1 <0>         0.0000
  21437 WAT       -35.1820  -74.9160   -0.5830 O         1 <0>         0.0000
  21438 WAT       -35.1820  -74.9160   -0.3330 O         1 <0>         0.0000
  21439 WAT       -35.1820  -74.9160   -0.0830 O         1 <0>         0.0000
  21440 WAT       -35.1820  -74.6660   -9.8330 O         1 <0>         0.0000
  21441 WAT       -35.1820  -74.6660   -9.5830 O         1 <0>         0.0000
  21442 WAT       -35.1820  -74.6660   -9.3330 O         1 <0>         0.0000
  21443 WAT       -35.1820  -74.6660   -9.0830 O         1 <0>         0.0000
  21444 WAT       -35.1820  -74.6660   -8.8330 O         1 <0>         0.0000
  21445 WAT       -35.1820  -74.6660   -8.5830 O         1 <0>         0.0000
  21446 WAT       -35.1820  -74.6660   -8.3330 O         1 <0>         0.0000
  21447 WAT       -35.1820  -74.6660   -8.0830 O         1 <0>         0.0000
  21448 WAT       -35.1820  -74.6660   -7.8330 O         1 <0>         0.0000
  21449 WAT       -35.1820  -74.6660   -7.5830 O         1 <0>         0.0000
  21450 WAT       -35.1820  -74.6660   -7.3330 O         1 <0>         0.0000
  21451 WAT       -35.1820  -74.6660   -7.0830 O         1 <0>         0.0004
  21452 WAT       -35.1820  -74.6660   -6.8330 O         1 <0>         0.0018
  21453 WAT       -35.1820  -74.6660   -6.5830 O         1 <0>         0.0053
  21454 WAT       -35.1820  -74.6660   -6.3330 O         1 <0>         0.0105
  21455 WAT       -35.1820  -74.6660   -6.0830 O         1 <0>         0.0144
  21456 WAT       -35.1820  -74.6660   -5.8330 O         1 <0>         0.0146
  21457 WAT       -35.1820  -74.6660   -5.5830 O         1 <0>         0.0119
  21458 WAT       -35.1820  -74.6660   -5.3330 O         1 <0>         0.0092
  21459 WAT       -35.1820  -74.6660   -5.0830 O         1 <0>         0.0079
  21460 WAT       -35.1820  -74.6660   -4.8330 O         1 <0>         0.0081
  21461 WAT       -35.1820  -74.6660   -4.5830 O         1 <0>         0.0104
  21462 WAT       -35.1820  -74.6660   -4.3330 O         1 <0>         0.0188
  21463 WAT       -35.1820  -74.6660   -4.0830 O         1 <0>         0.0410
  21464 WAT       -35.1820  -74.6660   -3.8330 O         1 <0>         0.0809
  21465 WAT       -35.1820  -74.6660   -3.5830 O         1 <0>         0.1229
  21466 WAT       -35.1820  -74.6660   -3.3330 O         1 <0>         0.1345
  21467 WAT       -35.1820  -74.6660   -3.0830 O         1 <0>         0.1034
  21468 WAT       -35.1820  -74.6660   -2.8330 O         1 <0>         0.0552
  21469 WAT       -35.1820  -74.6660   -2.5830 O         1 <0>         0.0200
  21470 WAT       -35.1820  -74.6660   -2.3330 O         1 <0>         0.0046
  21471 WAT       -35.1820  -74.6660   -2.0830 O         1 <0>         0.0006
  21472 WAT       -35.1820  -74.6660   -1.8330 O         1 <0>         0.0000
  21473 WAT       -35.1820  -74.6660   -1.5830 O         1 <0>         0.0000
  21474 WAT       -35.1820  -74.6660   -1.3330 O         1 <0>         0.0000
  21475 WAT       -35.1820  -74.6660   -1.0830 O         1 <0>         0.0000
  21476 WAT       -35.1820  -74.6660   -0.8330 O         1 <0>         0.0000
  21477 WAT       -35.1820  -74.6660   -0.5830 O         1 <0>         0.0000
  21478 WAT       -35.1820  -74.6660   -0.3330 O         1 <0>         0.0000
  21479 WAT       -35.1820  -74.6660   -0.0830 O         1 <0>         0.0000
  21480 WAT       -35.1820  -74.4160   -9.8330 O         1 <0>         0.0000
  21481 WAT       -35.1820  -74.4160   -9.5830 O         1 <0>         0.0000
  21482 WAT       -35.1820  -74.4160   -9.3330 O         1 <0>         0.0000
  21483 WAT       -35.1820  -74.4160   -9.0830 O         1 <0>         0.0000
  21484 WAT       -35.1820  -74.4160   -8.8330 O         1 <0>         0.0000
  21485 WAT       -35.1820  -74.4160   -8.5830 O         1 <0>         0.0000
  21486 WAT       -35.1820  -74.4160   -8.3330 O         1 <0>         0.0000
  21487 WAT       -35.1820  -74.4160   -8.0830 O         1 <0>         0.0000
  21488 WAT       -35.1820  -74.4160   -7.8330 O         1 <0>         0.0000
  21489 WAT       -35.1820  -74.4160   -7.5830 O         1 <0>         0.0000
  21490 WAT       -35.1820  -74.4160   -7.3330 O         1 <0>         0.0001
  21491 WAT       -35.1820  -74.4160   -7.0830 O         1 <0>         0.0009
  21492 WAT       -35.1820  -74.4160   -6.8330 O         1 <0>         0.0040
  21493 WAT       -35.1820  -74.4160   -6.5830 O         1 <0>         0.0112
  21494 WAT       -35.1820  -74.4160   -6.3330 O         1 <0>         0.0219
  21495 WAT       -35.1820  -74.4160   -6.0830 O         1 <0>         0.0303
  21496 WAT       -35.1820  -74.4160   -5.8330 O         1 <0>         0.0318
  21497 WAT       -35.1820  -74.4160   -5.5830 O         1 <0>         0.0279
  21498 WAT       -35.1820  -74.4160   -5.3330 O         1 <0>         0.0241
  21499 WAT       -35.1820  -74.4160   -5.0830 O         1 <0>         0.0231
  21500 WAT       -35.1820  -74.4160   -4.8330 O         1 <0>         0.0240
  21501 WAT       -35.1820  -74.4160   -4.5830 O         1 <0>         0.0258
  21502 WAT       -35.1820  -74.4160   -4.3330 O         1 <0>         0.0329
  21503 WAT       -35.1820  -74.4160   -4.0830 O         1 <0>         0.0554
  21504 WAT       -35.1820  -74.4160   -3.8330 O         1 <0>         0.0999
  21505 WAT       -35.1820  -74.4160   -3.5830 O         1 <0>         0.1502
  21506 WAT       -35.1820  -74.4160   -3.3330 O         1 <0>         0.1666
  21507 WAT       -35.1820  -74.4160   -3.0830 O         1 <0>         0.1305
  21508 WAT       -35.1820  -74.4160   -2.8330 O         1 <0>         0.0713
  21509 WAT       -35.1820  -74.4160   -2.5830 O         1 <0>         0.0266
  21510 WAT       -35.1820  -74.4160   -2.3330 O         1 <0>         0.0065
  21511 WAT       -35.1820  -74.4160   -2.0830 O         1 <0>         0.0009
  21512 WAT       -35.1820  -74.4160   -1.8330 O         1 <0>         0.0001
  21513 WAT       -35.1820  -74.4160   -1.5830 O         1 <0>         0.0000
  21514 WAT       -35.1820  -74.4160   -1.3330 O         1 <0>         0.0000
  21515 WAT       -35.1820  -74.4160   -1.0830 O         1 <0>         0.0000
  21516 WAT       -35.1820  -74.4160   -0.8330 O         1 <0>         0.0000
  21517 WAT       -35.1820  -74.4160   -0.5830 O         1 <0>         0.0000
  21518 WAT       -35.1820  -74.4160   -0.3330 O         1 <0>         0.0000
  21519 WAT       -35.1820  -74.4160   -0.0830 O         1 <0>         0.0000
  21520 WAT       -35.1820  -74.1660   -9.8330 O         1 <0>         0.0000
  21521 WAT       -35.1820  -74.1660   -9.5830 O         1 <0>         0.0000
  21522 WAT       -35.1820  -74.1660   -9.3330 O         1 <0>         0.0000
  21523 WAT       -35.1820  -74.1660   -9.0830 O         1 <0>         0.0000
  21524 WAT       -35.1820  -74.1660   -8.8330 O         1 <0>         0.0000
  21525 WAT       -35.1820  -74.1660   -8.5830 O         1 <0>         0.0000
  21526 WAT       -35.1820  -74.1660   -8.3330 O         1 <0>         0.0000
  21527 WAT       -35.1820  -74.1660   -8.0830 O         1 <0>         0.0000
  21528 WAT       -35.1820  -74.1660   -7.8330 O         1 <0>         0.0000
  21529 WAT       -35.1820  -74.1660   -7.5830 O         1 <0>         0.0001
  21530 WAT       -35.1820  -74.1660   -7.3330 O         1 <0>         0.0005
  21531 WAT       -35.1820  -74.1660   -7.0830 O         1 <0>         0.0021
  21532 WAT       -35.1820  -74.1660   -6.8330 O         1 <0>         0.0066
  21533 WAT       -35.1820  -74.1660   -6.5830 O         1 <0>         0.0167
  21534 WAT       -35.1820  -74.1660   -6.3330 O         1 <0>         0.0314
  21535 WAT       -35.1820  -74.1660   -6.0830 O         1 <0>         0.0438
  21536 WAT       -35.1820  -74.1660   -5.8330 O         1 <0>         0.0477
  21537 WAT       -35.1820  -74.1660   -5.5830 O         1 <0>         0.0457
  21538 WAT       -35.1820  -74.1660   -5.3330 O         1 <0>         0.0454
  21539 WAT       -35.1820  -74.1660   -5.0830 O         1 <0>         0.0501
  21540 WAT       -35.1820  -74.1660   -4.8330 O         1 <0>         0.0556
  21541 WAT       -35.1820  -74.1660   -4.5830 O         1 <0>         0.0572
  21542 WAT       -35.1820  -74.1660   -4.3330 O         1 <0>         0.0584
  21543 WAT       -35.1820  -74.1660   -4.0830 O         1 <0>         0.0718
  21544 WAT       -35.1820  -74.1660   -3.8330 O         1 <0>         0.1080
  21545 WAT       -35.1820  -74.1660   -3.5830 O         1 <0>         0.1534
  21546 WAT       -35.1820  -74.1660   -3.3330 O         1 <0>         0.1691
  21547 WAT       -35.1820  -74.1660   -3.0830 O         1 <0>         0.1338
  21548 WAT       -35.1820  -74.1660   -2.8330 O         1 <0>         0.0742
  21549 WAT       -35.1820  -74.1660   -2.5830 O         1 <0>         0.0284
  21550 WAT       -35.1820  -74.1660   -2.3330 O         1 <0>         0.0073
  21551 WAT       -35.1820  -74.1660   -2.0830 O         1 <0>         0.0012
  21552 WAT       -35.1820  -74.1660   -1.8330 O         1 <0>         0.0001
  21553 WAT       -35.1820  -74.1660   -1.5830 O         1 <0>         0.0000
  21554 WAT       -35.1820  -74.1660   -1.3330 O         1 <0>         0.0000
  21555 WAT       -35.1820  -74.1660   -1.0830 O         1 <0>         0.0000
  21556 WAT       -35.1820  -74.1660   -0.8330 O         1 <0>         0.0000
  21557 WAT       -35.1820  -74.1660   -0.5830 O         1 <0>         0.0000
  21558 WAT       -35.1820  -74.1660   -0.3330 O         1 <0>         0.0000
  21559 WAT       -35.1820  -74.1660   -0.0830 O         1 <0>         0.0000
  21560 WAT       -35.1820  -73.9160   -9.8330 O         1 <0>         0.0000
  21561 WAT       -35.1820  -73.9160   -9.5830 O         1 <0>         0.0000
  21562 WAT       -35.1820  -73.9160   -9.3330 O         1 <0>         0.0000
  21563 WAT       -35.1820  -73.9160   -9.0830 O         1 <0>         0.0000
  21564 WAT       -35.1820  -73.9160   -8.8330 O         1 <0>         0.0000
  21565 WAT       -35.1820  -73.9160   -8.5830 O         1 <0>         0.0000
  21566 WAT       -35.1820  -73.9160   -8.3330 O         1 <0>         0.0000
  21567 WAT       -35.1820  -73.9160   -8.0830 O         1 <0>         0.0000
  21568 WAT       -35.1820  -73.9160   -7.8330 O         1 <0>         0.0001
  21569 WAT       -35.1820  -73.9160   -7.5830 O         1 <0>         0.0006
  21570 WAT       -35.1820  -73.9160   -7.3330 O         1 <0>         0.0022
  21571 WAT       -35.1820  -73.9160   -7.0830 O         1 <0>         0.0053
  21572 WAT       -35.1820  -73.9160   -6.8330 O         1 <0>         0.0109
  21573 WAT       -35.1820  -73.9160   -6.5830 O         1 <0>         0.0206
  21574 WAT       -35.1820  -73.9160   -6.3330 O         1 <0>         0.0338
  21575 WAT       -35.1820  -73.9160   -6.0830 O         1 <0>         0.0457
  21576 WAT       -35.1820  -73.9160   -5.8330 O         1 <0>         0.0515
  21577 WAT       -35.1820  -73.9160   -5.5830 O         1 <0>         0.0549
  21578 WAT       -35.1820  -73.9160   -5.3330 O         1 <0>         0.0647
  21579 WAT       -35.1820  -73.9160   -5.0830 O         1 <0>         0.0831
  21580 WAT       -35.1820  -73.9160   -4.8330 O         1 <0>         0.0996
  21581 WAT       -35.1820  -73.9160   -4.5830 O         1 <0>         0.1022
  21582 WAT       -35.1820  -73.9160   -4.3330 O         1 <0>         0.0925
  21583 WAT       -35.1820  -73.9160   -4.0830 O         1 <0>         0.0874
  21584 WAT       -35.1820  -73.9160   -3.8330 O         1 <0>         0.1019
  21585 WAT       -35.1820  -73.9160   -3.5830 O         1 <0>         0.1286
  21586 WAT       -35.1820  -73.9160   -3.3330 O         1 <0>         0.1370
  21587 WAT       -35.1820  -73.9160   -3.0830 O         1 <0>         0.1081
  21588 WAT       -35.1820  -73.9160   -2.8330 O         1 <0>         0.0606
  21589 WAT       -35.1820  -73.9160   -2.5830 O         1 <0>         0.0237
  21590 WAT       -35.1820  -73.9160   -2.3330 O         1 <0>         0.0064
  21591 WAT       -35.1820  -73.9160   -2.0830 O         1 <0>         0.0012
  21592 WAT       -35.1820  -73.9160   -1.8330 O         1 <0>         0.0003
  21593 WAT       -35.1820  -73.9160   -1.5830 O         1 <0>         0.0001
  21594 WAT       -35.1820  -73.9160   -1.3330 O         1 <0>         0.0000
  21595 WAT       -35.1820  -73.9160   -1.0830 O         1 <0>         0.0000
  21596 WAT       -35.1820  -73.9160   -0.8330 O         1 <0>         0.0000
  21597 WAT       -35.1820  -73.9160   -0.5830 O         1 <0>         0.0000
  21598 WAT       -35.1820  -73.9160   -0.3330 O         1 <0>         0.0000
  21599 WAT       -35.1820  -73.9160   -0.0830 O         1 <0>         0.0000
  21600 WAT       -35.1820  -73.6660   -9.8330 O         1 <0>         0.0000
  21601 WAT       -35.1820  -73.6660   -9.5830 O         1 <0>         0.0000
  21602 WAT       -35.1820  -73.6660   -9.3330 O         1 <0>         0.0000
  21603 WAT       -35.1820  -73.6660   -9.0830 O         1 <0>         0.0000
  21604 WAT       -35.1820  -73.6660   -8.8330 O         1 <0>         0.0000
  21605 WAT       -35.1820  -73.6660   -8.5830 O         1 <0>         0.0000
  21606 WAT       -35.1820  -73.6660   -8.3330 O         1 <0>         0.0000
  21607 WAT       -35.1820  -73.6660   -8.0830 O         1 <0>         0.0001
  21608 WAT       -35.1820  -73.6660   -7.8330 O         1 <0>         0.0005
  21609 WAT       -35.1820  -73.6660   -7.5830 O         1 <0>         0.0025
  21610 WAT       -35.1820  -73.6660   -7.3330 O         1 <0>         0.0072
  21611 WAT       -35.1820  -73.6660   -7.0830 O         1 <0>         0.0140
  21612 WAT       -35.1820  -73.6660   -6.8330 O         1 <0>         0.0206
  21613 WAT       -35.1820  -73.6660   -6.5830 O         1 <0>         0.0260
  21614 WAT       -35.1820  -73.6660   -6.3330 O         1 <0>         0.0315
  21615 WAT       -35.1820  -73.6660   -6.0830 O         1 <0>         0.0371
  21616 WAT       -35.1820  -73.6660   -5.8330 O         1 <0>         0.0419
  21617 WAT       -35.1820  -73.6660   -5.5830 O         1 <0>         0.0505
  21618 WAT       -35.1820  -73.6660   -5.3330 O         1 <0>         0.0717
  21619 WAT       -35.1820  -73.6660   -5.0830 O         1 <0>         0.1056
  21620 WAT       -35.1820  -73.6660   -4.8330 O         1 <0>         0.1353
  21621 WAT       -35.1820  -73.6660   -4.5830 O         1 <0>         0.1399
  21622 WAT       -35.1820  -73.6660   -4.3330 O         1 <0>         0.1185
  21623 WAT       -35.1820  -73.6660   -4.0830 O         1 <0>         0.0928
  21624 WAT       -35.1820  -73.6660   -3.8330 O         1 <0>         0.0827
  21625 WAT       -35.1820  -73.6660   -3.5830 O         1 <0>         0.0871
  21626 WAT       -35.1820  -73.6660   -3.3330 O         1 <0>         0.0866
  21627 WAT       -35.1820  -73.6660   -3.0830 O         1 <0>         0.0671
  21628 WAT       -35.1820  -73.6660   -2.8330 O         1 <0>         0.0376
  21629 WAT       -35.1820  -73.6660   -2.5830 O         1 <0>         0.0149
  21630 WAT       -35.1820  -73.6660   -2.3330 O         1 <0>         0.0043
  21631 WAT       -35.1820  -73.6660   -2.0830 O         1 <0>         0.0012
  21632 WAT       -35.1820  -73.6660   -1.8330 O         1 <0>         0.0005
  21633 WAT       -35.1820  -73.6660   -1.5830 O         1 <0>         0.0002
  21634 WAT       -35.1820  -73.6660   -1.3330 O         1 <0>         0.0001
  21635 WAT       -35.1820  -73.6660   -1.0830 O         1 <0>         0.0000
  21636 WAT       -35.1820  -73.6660   -0.8330 O         1 <0>         0.0000
  21637 WAT       -35.1820  -73.6660   -0.5830 O         1 <0>         0.0000
  21638 WAT       -35.1820  -73.6660   -0.3330 O         1 <0>         0.0000
  21639 WAT       -35.1820  -73.6660   -0.0830 O         1 <0>         0.0000
  21640 WAT       -35.1820  -73.4160   -9.8330 O         1 <0>         0.0000
  21641 WAT       -35.1820  -73.4160   -9.5830 O         1 <0>         0.0000
  21642 WAT       -35.1820  -73.4160   -9.3330 O         1 <0>         0.0000
  21643 WAT       -35.1820  -73.4160   -9.0830 O         1 <0>         0.0000
  21644 WAT       -35.1820  -73.4160   -8.8330 O         1 <0>         0.0000
  21645 WAT       -35.1820  -73.4160   -8.5830 O         1 <0>         0.0000
  21646 WAT       -35.1820  -73.4160   -8.3330 O         1 <0>         0.0000
  21647 WAT       -35.1820  -73.4160   -8.0830 O         1 <0>         0.0002
  21648 WAT       -35.1820  -73.4160   -7.8330 O         1 <0>         0.0019
  21649 WAT       -35.1820  -73.4160   -7.5830 O         1 <0>         0.0077
  21650 WAT       -35.1820  -73.4160   -7.3330 O         1 <0>         0.0192
  21651 WAT       -35.1820  -73.4160   -7.0830 O         1 <0>         0.0327
  21652 WAT       -35.1820  -73.4160   -6.8330 O         1 <0>         0.0400
  21653 WAT       -35.1820  -73.4160   -6.5830 O         1 <0>         0.0378
  21654 WAT       -35.1820  -73.4160   -6.3330 O         1 <0>         0.0310
  21655 WAT       -35.1820  -73.4160   -6.0830 O         1 <0>         0.0267
  21656 WAT       -35.1820  -73.4160   -5.8330 O         1 <0>         0.0271
  21657 WAT       -35.1820  -73.4160   -5.5830 O         1 <0>         0.0365
  21658 WAT       -35.1820  -73.4160   -5.3330 O         1 <0>         0.0615
  21659 WAT       -35.1820  -73.4160   -5.0830 O         1 <0>         0.1014
  21660 WAT       -35.1820  -73.4160   -4.8330 O         1 <0>         0.1367
  21661 WAT       -35.1820  -73.4160   -4.5830 O         1 <0>         0.1427
  21662 WAT       -35.1820  -73.4160   -4.3330 O         1 <0>         0.1163
  21663 WAT       -35.1820  -73.4160   -4.0830 O         1 <0>         0.0803
  21664 WAT       -35.1820  -73.4160   -3.8330 O         1 <0>         0.0563
  21665 WAT       -35.1820  -73.4160   -3.5830 O         1 <0>         0.0472
  21666 WAT       -35.1820  -73.4160   -3.3330 O         1 <0>         0.0419
  21667 WAT       -35.1820  -73.4160   -3.0830 O         1 <0>         0.0311
  21668 WAT       -35.1820  -73.4160   -2.8330 O         1 <0>         0.0171
  21669 WAT       -35.1820  -73.4160   -2.5830 O         1 <0>         0.0068
  21670 WAT       -35.1820  -73.4160   -2.3330 O         1 <0>         0.0023
  21671 WAT       -35.1820  -73.4160   -2.0830 O         1 <0>         0.0011
  21672 WAT       -35.1820  -73.4160   -1.8330 O         1 <0>         0.0007
  21673 WAT       -35.1820  -73.4160   -1.5830 O         1 <0>         0.0004
  21674 WAT       -35.1820  -73.4160   -1.3330 O         1 <0>         0.0001
  21675 WAT       -35.1820  -73.4160   -1.0830 O         1 <0>         0.0000
  21676 WAT       -35.1820  -73.4160   -0.8330 O         1 <0>         0.0000
  21677 WAT       -35.1820  -73.4160   -0.5830 O         1 <0>         0.0000
  21678 WAT       -35.1820  -73.4160   -0.3330 O         1 <0>         0.0000
  21679 WAT       -35.1820  -73.4160   -0.0830 O         1 <0>         0.0000
  21680 WAT       -35.1820  -73.1660   -9.8330 O         1 <0>         0.0000
  21681 WAT       -35.1820  -73.1660   -9.5830 O         1 <0>         0.0000
  21682 WAT       -35.1820  -73.1660   -9.3330 O         1 <0>         0.0000
  21683 WAT       -35.1820  -73.1660   -9.0830 O         1 <0>         0.0000
  21684 WAT       -35.1820  -73.1660   -8.8330 O         1 <0>         0.0000
  21685 WAT       -35.1820  -73.1660   -8.5830 O         1 <0>         0.0000
  21686 WAT       -35.1820  -73.1660   -8.3330 O         1 <0>         0.0000
  21687 WAT       -35.1820  -73.1660   -8.0830 O         1 <0>         0.0008
  21688 WAT       -35.1820  -73.1660   -7.8330 O         1 <0>         0.0056
  21689 WAT       -35.1820  -73.1660   -7.5830 O         1 <0>         0.0199
  21690 WAT       -35.1820  -73.1660   -7.3330 O         1 <0>         0.0443
  21691 WAT       -35.1820  -73.1660   -7.0830 O         1 <0>         0.0668
  21692 WAT       -35.1820  -73.1660   -6.8330 O         1 <0>         0.0717
  21693 WAT       -35.1820  -73.1660   -6.5830 O         1 <0>         0.0568
  21694 WAT       -35.1820  -73.1660   -6.3330 O         1 <0>         0.0353
  21695 WAT       -35.1820  -73.1660   -6.0830 O         1 <0>         0.0203
  21696 WAT       -35.1820  -73.1660   -5.8330 O         1 <0>         0.0151
  21697 WAT       -35.1820  -73.1660   -5.5830 O         1 <0>         0.0205
  21698 WAT       -35.1820  -73.1660   -5.3330 O         1 <0>         0.0398
  21699 WAT       -35.1820  -73.1660   -5.0830 O         1 <0>         0.0713
  21700 WAT       -35.1820  -73.1660   -4.8330 O         1 <0>         0.1002
  21701 WAT       -35.1820  -73.1660   -4.5830 O         1 <0>         0.1059
  21702 WAT       -35.1820  -73.1660   -4.3330 O         1 <0>         0.0845
  21703 WAT       -35.1820  -73.1660   -4.0830 O         1 <0>         0.0536
  21704 WAT       -35.1820  -73.1660   -3.8330 O         1 <0>         0.0309
  21705 WAT       -35.1820  -73.1660   -3.5830 O         1 <0>         0.0201
  21706 WAT       -35.1820  -73.1660   -3.3330 O         1 <0>         0.0151
  21707 WAT       -35.1820  -73.1660   -3.0830 O         1 <0>         0.0104
  21708 WAT       -35.1820  -73.1660   -2.8330 O         1 <0>         0.0055
  21709 WAT       -35.1820  -73.1660   -2.5830 O         1 <0>         0.0022
  21710 WAT       -35.1820  -73.1660   -2.3330 O         1 <0>         0.0011
  21711 WAT       -35.1820  -73.1660   -2.0830 O         1 <0>         0.0008
  21712 WAT       -35.1820  -73.1660   -1.8330 O         1 <0>         0.0007
  21713 WAT       -35.1820  -73.1660   -1.5830 O         1 <0>         0.0004
  21714 WAT       -35.1820  -73.1660   -1.3330 O         1 <0>         0.0002
  21715 WAT       -35.1820  -73.1660   -1.0830 O         1 <0>         0.0000
  21716 WAT       -35.1820  -73.1660   -0.8330 O         1 <0>         0.0000
  21717 WAT       -35.1820  -73.1660   -0.5830 O         1 <0>         0.0000
  21718 WAT       -35.1820  -73.1660   -0.3330 O         1 <0>         0.0000
  21719 WAT       -35.1820  -73.1660   -0.0830 O         1 <0>         0.0000
  21720 WAT       -35.1820  -72.9160   -9.8330 O         1 <0>         0.0000
  21721 WAT       -35.1820  -72.9160   -9.5830 O         1 <0>         0.0000
  21722 WAT       -35.1820  -72.9160   -9.3330 O         1 <0>         0.0000
  21723 WAT       -35.1820  -72.9160   -9.0830 O         1 <0>         0.0000
  21724 WAT       -35.1820  -72.9160   -8.8330 O         1 <0>         0.0000
  21725 WAT       -35.1820  -72.9160   -8.5830 O         1 <0>         0.0000
  21726 WAT       -35.1820  -72.9160   -8.3330 O         1 <0>         0.0001
  21727 WAT       -35.1820  -72.9160   -8.0830 O         1 <0>         0.0023
  21728 WAT       -35.1820  -72.9160   -7.8330 O         1 <0>         0.0143
  21729 WAT       -35.1820  -72.9160   -7.5830 O         1 <0>         0.0455
  21730 WAT       -35.1820  -72.9160   -7.3330 O         1 <0>         0.0906
  21731 WAT       -35.1820  -72.9160   -7.0830 O         1 <0>         0.1217
  21732 WAT       -35.1820  -72.9160   -6.8330 O         1 <0>         0.1151
  21733 WAT       -35.1820  -72.9160   -6.5830 O         1 <0>         0.0796
  21734 WAT       -35.1820  -72.9160   -6.3330 O         1 <0>         0.0418
  21735 WAT       -35.1820  -72.9160   -6.0830 O         1 <0>         0.0179
  21736 WAT       -35.1820  -72.9160   -5.8330 O         1 <0>         0.0083
  21737 WAT       -35.1820  -72.9160   -5.5830 O         1 <0>         0.0089
  21738 WAT       -35.1820  -72.9160   -5.3330 O         1 <0>         0.0188
  21739 WAT       -35.1820  -72.9160   -5.0830 O         1 <0>         0.0360
  21740 WAT       -35.1820  -72.9160   -4.8330 O         1 <0>         0.0524
  21741 WAT       -35.1820  -72.9160   -4.5830 O         1 <0>         0.0561
  21742 WAT       -35.1820  -72.9160   -4.3330 O         1 <0>         0.0442
  21743 WAT       -35.1820  -72.9160   -4.0830 O         1 <0>         0.0264
  21744 WAT       -35.1820  -72.9160   -3.8330 O         1 <0>         0.0131
  21745 WAT       -35.1820  -72.9160   -3.5830 O         1 <0>         0.0066
  21746 WAT       -35.1820  -72.9160   -3.3330 O         1 <0>         0.0040
  21747 WAT       -35.1820  -72.9160   -3.0830 O         1 <0>         0.0024
  21748 WAT       -35.1820  -72.9160   -2.8330 O         1 <0>         0.0012
  21749 WAT       -35.1820  -72.9160   -2.5830 O         1 <0>         0.0005
  21750 WAT       -35.1820  -72.9160   -2.3330 O         1 <0>         0.0005
  21751 WAT       -35.1820  -72.9160   -2.0830 O         1 <0>         0.0005
  21752 WAT       -35.1820  -72.9160   -1.8330 O         1 <0>         0.0005
  21753 WAT       -35.1820  -72.9160   -1.5830 O         1 <0>         0.0003
  21754 WAT       -35.1820  -72.9160   -1.3330 O         1 <0>         0.0001
  21755 WAT       -35.1820  -72.9160   -1.0830 O         1 <0>         0.0000
  21756 WAT       -35.1820  -72.9160   -0.8330 O         1 <0>         0.0000
  21757 WAT       -35.1820  -72.9160   -0.5830 O         1 <0>         0.0000
  21758 WAT       -35.1820  -72.9160   -0.3330 O         1 <0>         0.0000
  21759 WAT       -35.1820  -72.9160   -0.0830 O         1 <0>         0.0000
  21760 WAT       -35.1820  -72.6660   -9.8330 O         1 <0>         0.0000
  21761 WAT       -35.1820  -72.6660   -9.5830 O         1 <0>         0.0000
  21762 WAT       -35.1820  -72.6660   -9.3330 O         1 <0>         0.0000
  21763 WAT       -35.1820  -72.6660   -9.0830 O         1 <0>         0.0000
  21764 WAT       -35.1820  -72.6660   -8.8330 O         1 <0>         0.0000
  21765 WAT       -35.1820  -72.6660   -8.5830 O         1 <0>         0.0000
  21766 WAT       -35.1820  -72.6660   -8.3330 O         1 <0>         0.0003
  21767 WAT       -35.1820  -72.6660   -8.0830 O         1 <0>         0.0058
  21768 WAT       -35.1820  -72.6660   -7.8330 O         1 <0>         0.0316
  21769 WAT       -35.1820  -72.6660   -7.5830 O         1 <0>         0.0903
  21770 WAT       -35.1820  -72.6660   -7.3330 O         1 <0>         0.1635
  21771 WAT       -35.1820  -72.6660   -7.0830 O         1 <0>         0.1976
  21772 WAT       -35.1820  -72.6660   -6.8330 O         1 <0>         0.1654
  21773 WAT       -35.1820  -72.6660   -6.5830 O         1 <0>         0.0998
  21774 WAT       -35.1820  -72.6660   -6.3330 O         1 <0>         0.0452
  21775 WAT       -35.1820  -72.6660   -6.0830 O         1 <0>         0.0160
  21776 WAT       -35.1820  -72.6660   -5.8330 O         1 <0>         0.0050
  21777 WAT       -35.1820  -72.6660   -5.5830 O         1 <0>         0.0030
  21778 WAT       -35.1820  -72.6660   -5.3330 O         1 <0>         0.0062
  21779 WAT       -35.1820  -72.6660   -5.0830 O         1 <0>         0.0127
  21780 WAT       -35.1820  -72.6660   -4.8330 O         1 <0>         0.0192
  21781 WAT       -35.1820  -72.6660   -4.5830 O         1 <0>         0.0209
  21782 WAT       -35.1820  -72.6660   -4.3330 O         1 <0>         0.0163
  21783 WAT       -35.1820  -72.6660   -4.0830 O         1 <0>         0.0092
  21784 WAT       -35.1820  -72.6660   -3.8330 O         1 <0>         0.0040
  21785 WAT       -35.1820  -72.6660   -3.5830 O         1 <0>         0.0016
  21786 WAT       -35.1820  -72.6660   -3.3330 O         1 <0>         0.0007
  21787 WAT       -35.1820  -72.6660   -3.0830 O         1 <0>         0.0004
  21788 WAT       -35.1820  -72.6660   -2.8330 O         1 <0>         0.0002
  21789 WAT       -35.1820  -72.6660   -2.5830 O         1 <0>         0.0001
  21790 WAT       -35.1820  -72.6660   -2.3330 O         1 <0>         0.0002
  21791 WAT       -35.1820  -72.6660   -2.0830 O         1 <0>         0.0002
  21792 WAT       -35.1820  -72.6660   -1.8330 O         1 <0>         0.0002
  21793 WAT       -35.1820  -72.6660   -1.5830 O         1 <0>         0.0001
  21794 WAT       -35.1820  -72.6660   -1.3330 O         1 <0>         0.0001
  21795 WAT       -35.1820  -72.6660   -1.0830 O         1 <0>         0.0000
  21796 WAT       -35.1820  -72.6660   -0.8330 O         1 <0>         0.0000
  21797 WAT       -35.1820  -72.6660   -0.5830 O         1 <0>         0.0000
  21798 WAT       -35.1820  -72.6660   -0.3330 O         1 <0>         0.0000
  21799 WAT       -35.1820  -72.6660   -0.0830 O         1 <0>         0.0000
  21800 WAT       -35.1820  -72.4160   -9.8330 O         1 <0>         0.0000
  21801 WAT       -35.1820  -72.4160   -9.5830 O         1 <0>         0.0000
  21802 WAT       -35.1820  -72.4160   -9.3330 O         1 <0>         0.0000
  21803 WAT       -35.1820  -72.4160   -9.0830 O         1 <0>         0.0000
  21804 WAT       -35.1820  -72.4160   -8.8330 O         1 <0>         0.0000
  21805 WAT       -35.1820  -72.4160   -8.5830 O         1 <0>         0.0000
  21806 WAT       -35.1820  -72.4160   -8.3330 O         1 <0>         0.0009
  21807 WAT       -35.1820  -72.4160   -8.0830 O         1 <0>         0.0125
  21808 WAT       -35.1820  -72.4160   -7.8330 O         1 <0>         0.0582
  21809 WAT       -35.1820  -72.4160   -7.5830 O         1 <0>         0.1517
  21810 WAT       -35.1820  -72.4160   -7.3330 O         1 <0>         0.2529
  21811 WAT       -35.1820  -72.4160   -7.0830 O         1 <0>         0.2784
  21812 WAT       -35.1820  -72.4160   -6.8330 O         1 <0>         0.2082
  21813 WAT       -35.1820  -72.4160   -6.5830 O         1 <0>         0.1098
  21814 WAT       -35.1820  -72.4160   -6.3330 O         1 <0>         0.0426
  21815 WAT       -35.1820  -72.4160   -6.0830 O         1 <0>         0.0126
  21816 WAT       -35.1820  -72.4160   -5.8330 O         1 <0>         0.0031
  21817 WAT       -35.1820  -72.4160   -5.5830 O         1 <0>         0.0009
  21818 WAT       -35.1820  -72.4160   -5.3330 O         1 <0>         0.0013
  21819 WAT       -35.1820  -72.4160   -5.0830 O         1 <0>         0.0029
  21820 WAT       -35.1820  -72.4160   -4.8330 O         1 <0>         0.0047
  21821 WAT       -35.1820  -72.4160   -4.5830 O         1 <0>         0.0052
  21822 WAT       -35.1820  -72.4160   -4.3330 O         1 <0>         0.0040
  21823 WAT       -35.1820  -72.4160   -4.0830 O         1 <0>         0.0021
  21824 WAT       -35.1820  -72.4160   -3.8330 O         1 <0>         0.0008
  21825 WAT       -35.1820  -72.4160   -3.5830 O         1 <0>         0.0002
  21826 WAT       -35.1820  -72.4160   -3.3330 O         1 <0>         0.0001
  21827 WAT       -35.1820  -72.4160   -3.0830 O         1 <0>         0.0000
  21828 WAT       -35.1820  -72.4160   -2.8330 O         1 <0>         0.0000
  21829 WAT       -35.1820  -72.4160   -2.5830 O         1 <0>         0.0000
  21830 WAT       -35.1820  -72.4160   -2.3330 O         1 <0>         0.0000
  21831 WAT       -35.1820  -72.4160   -2.0830 O         1 <0>         0.0001
  21832 WAT       -35.1820  -72.4160   -1.8330 O         1 <0>         0.0001
  21833 WAT       -35.1820  -72.4160   -1.5830 O         1 <0>         0.0000
  21834 WAT       -35.1820  -72.4160   -1.3330 O         1 <0>         0.0000
  21835 WAT       -35.1820  -72.4160   -1.0830 O         1 <0>         0.0000
  21836 WAT       -35.1820  -72.4160   -0.8330 O         1 <0>         0.0000
  21837 WAT       -35.1820  -72.4160   -0.5830 O         1 <0>         0.0000
  21838 WAT       -35.1820  -72.4160   -0.3330 O         1 <0>         0.0000
  21839 WAT       -35.1820  -72.4160   -0.0830 O         1 <0>         0.0000
  21840 WAT       -35.1820  -72.1660   -9.8330 O         1 <0>         0.0000
  21841 WAT       -35.1820  -72.1660   -9.5830 O         1 <0>         0.0000
  21842 WAT       -35.1820  -72.1660   -9.3330 O         1 <0>         0.0000
  21843 WAT       -35.1820  -72.1660   -9.0830 O         1 <0>         0.0000
  21844 WAT       -35.1820  -72.1660   -8.8330 O         1 <0>         0.0000
  21845 WAT       -35.1820  -72.1660   -8.5830 O         1 <0>         0.0000
  21846 WAT       -35.1820  -72.1660   -8.3330 O         1 <0>         0.0019
  21847 WAT       -35.1820  -72.1660   -8.0830 O         1 <0>         0.0214
  21848 WAT       -35.1820  -72.1660   -7.8330 O         1 <0>         0.0876
  21849 WAT       -35.1820  -72.1660   -7.5830 O         1 <0>         0.2115
  21850 WAT       -35.1820  -72.1660   -7.3330 O         1 <0>         0.3270
  21851 WAT       -35.1820  -72.1660   -7.0830 O         1 <0>         0.3306
  21852 WAT       -35.1820  -72.1660   -6.8330 O         1 <0>         0.2235
  21853 WAT       -35.1820  -72.1660   -6.5830 O         1 <0>         0.1038
  21854 WAT       -35.1820  -72.1660   -6.3330 O         1 <0>         0.0339
  21855 WAT       -35.1820  -72.1660   -6.0830 O         1 <0>         0.0081
  21856 WAT       -35.1820  -72.1660   -5.8330 O         1 <0>         0.0015
  21857 WAT       -35.1820  -72.1660   -5.5830 O         1 <0>         0.0002
  21858 WAT       -35.1820  -72.1660   -5.3330 O         1 <0>         0.0001
  21859 WAT       -35.1820  -72.1660   -5.0830 O         1 <0>         0.0004
  21860 WAT       -35.1820  -72.1660   -4.8330 O         1 <0>         0.0007
  21861 WAT       -35.1820  -72.1660   -4.5830 O         1 <0>         0.0008
  21862 WAT       -35.1820  -72.1660   -4.3330 O         1 <0>         0.0006
  21863 WAT       -35.1820  -72.1660   -4.0830 O         1 <0>         0.0003
  21864 WAT       -35.1820  -72.1660   -3.8330 O         1 <0>         0.0001
  21865 WAT       -35.1820  -72.1660   -3.5830 O         1 <0>         0.0000
  21866 WAT       -35.1820  -72.1660   -3.3330 O         1 <0>         0.0000
  21867 WAT       -35.1820  -72.1660   -3.0830 O         1 <0>         0.0000
  21868 WAT       -35.1820  -72.1660   -2.8330 O         1 <0>         0.0000
  21869 WAT       -35.1820  -72.1660   -2.5830 O         1 <0>         0.0000
  21870 WAT       -35.1820  -72.1660   -2.3330 O         1 <0>         0.0000
  21871 WAT       -35.1820  -72.1660   -2.0830 O         1 <0>         0.0000
  21872 WAT       -35.1820  -72.1660   -1.8330 O         1 <0>         0.0000
  21873 WAT       -35.1820  -72.1660   -1.5830 O         1 <0>         0.0000
  21874 WAT       -35.1820  -72.1660   -1.3330 O         1 <0>         0.0000
  21875 WAT       -35.1820  -72.1660   -1.0830 O         1 <0>         0.0000
  21876 WAT       -35.1820  -72.1660   -0.8330 O         1 <0>         0.0000
  21877 WAT       -35.1820  -72.1660   -0.5830 O         1 <0>         0.0000
  21878 WAT       -35.1820  -72.1660   -0.3330 O         1 <0>         0.0000
  21879 WAT       -35.1820  -72.1660   -0.0830 O         1 <0>         0.0000
  21880 WAT       -35.1820  -71.9160   -9.8330 O         1 <0>         0.0000
  21881 WAT       -35.1820  -71.9160   -9.5830 O         1 <0>         0.0000
  21882 WAT       -35.1820  -71.9160   -9.3330 O         1 <0>         0.0000
  21883 WAT       -35.1820  -71.9160   -9.0830 O         1 <0>         0.0000
  21884 WAT       -35.1820  -71.9160   -8.8330 O         1 <0>         0.0000
  21885 WAT       -35.1820  -71.9160   -8.5830 O         1 <0>         0.0000
  21886 WAT       -35.1820  -71.9160   -8.3330 O         1 <0>         0.0031
  21887 WAT       -35.1820  -71.9160   -8.0830 O         1 <0>         0.0281
  21888 WAT       -35.1820  -71.9160   -7.8330 O         1 <0>         0.1059
  21889 WAT       -35.1820  -71.9160   -7.5830 O         1 <0>         0.2402
  21890 WAT       -35.1820  -71.9160   -7.3330 O         1 <0>         0.3473
  21891 WAT       -35.1820  -71.9160   -7.0830 O         1 <0>         0.3252
  21892 WAT       -35.1820  -71.9160   -6.8330 O         1 <0>         0.2006
  21893 WAT       -35.1820  -71.9160   -6.5830 O         1 <0>         0.0829
  21894 WAT       -35.1820  -71.9160   -6.3330 O         1 <0>         0.0226
  21895 WAT       -35.1820  -71.9160   -6.0830 O         1 <0>         0.0041
  21896 WAT       -35.1820  -71.9160   -5.8330 O         1 <0>         0.0006
  21897 WAT       -35.1820  -71.9160   -5.5830 O         1 <0>         0.0001
  21898 WAT       -35.1820  -71.9160   -5.3330 O         1 <0>         0.0000
  21899 WAT       -35.1820  -71.9160   -5.0830 O         1 <0>         0.0000
  21900 WAT       -35.1820  -71.9160   -4.8330 O         1 <0>         0.0000
  21901 WAT       -35.1820  -71.9160   -4.5830 O         1 <0>         0.0001
  21902 WAT       -35.1820  -71.9160   -4.3330 O         1 <0>         0.0000
  21903 WAT       -35.1820  -71.9160   -4.0830 O         1 <0>         0.0000
  21904 WAT       -35.1820  -71.9160   -3.8330 O         1 <0>         0.0000
  21905 WAT       -35.1820  -71.9160   -3.5830 O         1 <0>         0.0000
  21906 WAT       -35.1820  -71.9160   -3.3330 O         1 <0>         0.0000
  21907 WAT       -35.1820  -71.9160   -3.0830 O         1 <0>         0.0000
  21908 WAT       -35.1820  -71.9160   -2.8330 O         1 <0>         0.0000
  21909 WAT       -35.1820  -71.9160   -2.5830 O         1 <0>         0.0000
  21910 WAT       -35.1820  -71.9160   -2.3330 O         1 <0>         0.0000
  21911 WAT       -35.1820  -71.9160   -2.0830 O         1 <0>         0.0000
  21912 WAT       -35.1820  -71.9160   -1.8330 O         1 <0>         0.0000
  21913 WAT       -35.1820  -71.9160   -1.5830 O         1 <0>         0.0000
  21914 WAT       -35.1820  -71.9160   -1.3330 O         1 <0>         0.0000
  21915 WAT       -35.1820  -71.9160   -1.0830 O         1 <0>         0.0000
  21916 WAT       -35.1820  -71.9160   -0.8330 O         1 <0>         0.0000
  21917 WAT       -35.1820  -71.9160   -0.5830 O         1 <0>         0.0000
  21918 WAT       -35.1820  -71.9160   -0.3330 O         1 <0>         0.0000
  21919 WAT       -35.1820  -71.9160   -0.0830 O         1 <0>         0.0000
  21920 WAT       -35.1820  -71.6660   -9.8330 O         1 <0>         0.0000
  21921 WAT       -35.1820  -71.6660   -9.5830 O         1 <0>         0.0000
  21922 WAT       -35.1820  -71.6660   -9.3330 O         1 <0>         0.0000
  21923 WAT       -35.1820  -71.6660   -9.0830 O         1 <0>         0.0000
  21924 WAT       -35.1820  -71.6660   -8.8330 O         1 <0>         0.0000
  21925 WAT       -35.1820  -71.6660   -8.5830 O         1 <0>         0.0001
  21926 WAT       -35.1820  -71.6660   -8.3330 O         1 <0>         0.0035
  21927 WAT       -35.1820  -71.6660   -8.0830 O         1 <0>         0.0282
  21928 WAT       -35.1820  -71.6660   -7.8330 O         1 <0>         0.1009
  21929 WAT       -35.1820  -71.6660   -7.5830 O         1 <0>         0.2181
  21930 WAT       -35.1820  -71.6660   -7.3330 O         1 <0>         0.2982
  21931 WAT       -35.1820  -71.6660   -7.0830 O         1 <0>         0.2615
  21932 WAT       -35.1820  -71.6660   -6.8330 O         1 <0>         0.1491
  21933 WAT       -35.1820  -71.6660   -6.5830 O         1 <0>         0.0553
  21934 WAT       -35.1820  -71.6660   -6.3330 O         1 <0>         0.0124
  21935 WAT       -35.1820  -71.6660   -6.0830 O         1 <0>         0.0016
  21936 WAT       -35.1820  -71.6660   -5.8330 O         1 <0>         0.0002
  21937 WAT       -35.1820  -71.6660   -5.5830 O         1 <0>         0.0000
  21938 WAT       -35.1820  -71.6660   -5.3330 O         1 <0>         0.0000
  21939 WAT       -35.1820  -71.6660   -5.0830 O         1 <0>         0.0000
  21940 WAT       -35.1820  -71.6660   -4.8330 O         1 <0>         0.0000
  21941 WAT       -35.1820  -71.6660   -4.5830 O         1 <0>         0.0000
  21942 WAT       -35.1820  -71.6660   -4.3330 O         1 <0>         0.0000
  21943 WAT       -35.1820  -71.6660   -4.0830 O         1 <0>         0.0000
  21944 WAT       -35.1820  -71.6660   -3.8330 O         1 <0>         0.0000
  21945 WAT       -35.1820  -71.6660   -3.5830 O         1 <0>         0.0000
  21946 WAT       -35.1820  -71.6660   -3.3330 O         1 <0>         0.0000
  21947 WAT       -35.1820  -71.6660   -3.0830 O         1 <0>         0.0000
  21948 WAT       -35.1820  -71.6660   -2.8330 O         1 <0>         0.0000
  21949 WAT       -35.1820  -71.6660   -2.5830 O         1 <0>         0.0000
  21950 WAT       -35.1820  -71.6660   -2.3330 O         1 <0>         0.0000
  21951 WAT       -35.1820  -71.6660   -2.0830 O         1 <0>         0.0000
  21952 WAT       -35.1820  -71.6660   -1.8330 O         1 <0>         0.0000
  21953 WAT       -35.1820  -71.6660   -1.5830 O         1 <0>         0.0000
  21954 WAT       -35.1820  -71.6660   -1.3330 O         1 <0>         0.0000
  21955 WAT       -35.1820  -71.6660   -1.0830 O         1 <0>         0.0000
  21956 WAT       -35.1820  -71.6660   -0.8330 O         1 <0>         0.0000
  21957 WAT       -35.1820  -71.6660   -0.5830 O         1 <0>         0.0000
  21958 WAT       -35.1820  -71.6660   -0.3330 O         1 <0>         0.0000
  21959 WAT       -35.1820  -71.6660   -0.0830 O         1 <0>         0.0000
  21960 WAT       -35.1820  -71.4160   -9.8330 O         1 <0>         0.0000
  21961 WAT       -35.1820  -71.4160   -9.5830 O         1 <0>         0.0000
  21962 WAT       -35.1820  -71.4160   -9.3330 O         1 <0>         0.0000
  21963 WAT       -35.1820  -71.4160   -9.0830 O         1 <0>         0.0000
  21964 WAT       -35.1820  -71.4160   -8.8330 O         1 <0>         0.0000
  21965 WAT       -35.1820  -71.4160   -8.5830 O         1 <0>         0.0001
  21966 WAT       -35.1820  -71.4160   -8.3330 O         1 <0>         0.0029
  21967 WAT       -35.1820  -71.4160   -8.0830 O         1 <0>         0.0216
  21968 WAT       -35.1820  -71.4160   -7.8330 O         1 <0>         0.0747
  21969 WAT       -35.1820  -71.4160   -7.5830 O         1 <0>         0.1555
  21970 WAT       -35.1820  -71.4160   -7.3330 O         1 <0>         0.2035
  21971 WAT       -35.1820  -71.4160   -7.0830 O         1 <0>         0.1696
  21972 WAT       -35.1820  -71.4160   -6.8330 O         1 <0>         0.0904
  21973 WAT       -35.1820  -71.4160   -6.5830 O         1 <0>         0.0302
  21974 WAT       -35.1820  -71.4160   -6.3330 O         1 <0>         0.0056
  21975 WAT       -35.1820  -71.4160   -6.0830 O         1 <0>         0.0005
  21976 WAT       -35.1820  -71.4160   -5.8330 O         1 <0>         0.0000
  21977 WAT       -35.1820  -71.4160   -5.5830 O         1 <0>         0.0000
  21978 WAT       -35.1820  -71.4160   -5.3330 O         1 <0>         0.0000
  21979 WAT       -35.1820  -71.4160   -5.0830 O         1 <0>         0.0000
  21980 WAT       -35.1820  -71.4160   -4.8330 O         1 <0>         0.0000
  21981 WAT       -35.1820  -71.4160   -4.5830 O         1 <0>         0.0000
  21982 WAT       -35.1820  -71.4160   -4.3330 O         1 <0>         0.0000
  21983 WAT       -35.1820  -71.4160   -4.0830 O         1 <0>         0.0000
  21984 WAT       -35.1820  -71.4160   -3.8330 O         1 <0>         0.0000
  21985 WAT       -35.1820  -71.4160   -3.5830 O         1 <0>         0.0000
  21986 WAT       -35.1820  -71.4160   -3.3330 O         1 <0>         0.0000
  21987 WAT       -35.1820  -71.4160   -3.0830 O         1 <0>         0.0000
  21988 WAT       -35.1820  -71.4160   -2.8330 O         1 <0>         0.0000
  21989 WAT       -35.1820  -71.4160   -2.5830 O         1 <0>         0.0000
  21990 WAT       -35.1820  -71.4160   -2.3330 O         1 <0>         0.0000
  21991 WAT       -35.1820  -71.4160   -2.0830 O         1 <0>         0.0000
  21992 WAT       -35.1820  -71.4160   -1.8330 O         1 <0>         0.0000
  21993 WAT       -35.1820  -71.4160   -1.5830 O         1 <0>         0.0000
  21994 WAT       -35.1820  -71.4160   -1.3330 O         1 <0>         0.0000
  21995 WAT       -35.1820  -71.4160   -1.0830 O         1 <0>         0.0000
  21996 WAT       -35.1820  -71.4160   -0.8330 O         1 <0>         0.0000
  21997 WAT       -35.1820  -71.4160   -0.5830 O         1 <0>         0.0000
  21998 WAT       -35.1820  -71.4160   -0.3330 O         1 <0>         0.0000
  21999 WAT       -35.1820  -71.4160   -0.0830 O         1 <0>         0.0000
  22000 WAT       -35.1820  -71.1660   -9.8330 O         1 <0>         0.0000
  22001 WAT       -35.1820  -71.1660   -9.5830 O         1 <0>         0.0000
  22002 WAT       -35.1820  -71.1660   -9.3330 O         1 <0>         0.0000
  22003 WAT       -35.1820  -71.1660   -9.0830 O         1 <0>         0.0000
  22004 WAT       -35.1820  -71.1660   -8.8330 O         1 <0>         0.0000
  22005 WAT       -35.1820  -71.1660   -8.5830 O         1 <0>         0.0001
  22006 WAT       -35.1820  -71.1660   -8.3330 O         1 <0>         0.0017
  22007 WAT       -35.1820  -71.1660   -8.0830 O         1 <0>         0.0123
  22008 WAT       -35.1820  -71.1660   -7.8330 O         1 <0>         0.0422
  22009 WAT       -35.1820  -71.1660   -7.5830 O         1 <0>         0.0858
  22010 WAT       -35.1820  -71.1660   -7.3330 O         1 <0>         0.1090
  22011 WAT       -35.1820  -71.1660   -7.0830 O         1 <0>         0.0874
  22012 WAT       -35.1820  -71.1660   -6.8330 O         1 <0>         0.0441
  22013 WAT       -35.1820  -71.1660   -6.5830 O         1 <0>         0.0134
  22014 WAT       -35.1820  -71.1660   -6.3330 O         1 <0>         0.0021
  22015 WAT       -35.1820  -71.1660   -6.0830 O         1 <0>         0.0001
  22016 WAT       -35.1820  -71.1660   -5.8330 O         1 <0>         0.0000
  22017 WAT       -35.1820  -71.1660   -5.5830 O         1 <0>         0.0000
  22018 WAT       -35.1820  -71.1660   -5.3330 O         1 <0>         0.0000
  22019 WAT       -35.1820  -71.1660   -5.0830 O         1 <0>         0.0000
  22020 WAT       -35.1820  -71.1660   -4.8330 O         1 <0>         0.0000
  22021 WAT       -35.1820  -71.1660   -4.5830 O         1 <0>         0.0000
  22022 WAT       -35.1820  -71.1660   -4.3330 O         1 <0>         0.0000
  22023 WAT       -35.1820  -71.1660   -4.0830 O         1 <0>         0.0000
  22024 WAT       -35.1820  -71.1660   -3.8330 O         1 <0>         0.0000
  22025 WAT       -35.1820  -71.1660   -3.5830 O         1 <0>         0.0000
  22026 WAT       -35.1820  -71.1660   -3.3330 O         1 <0>         0.0000
  22027 WAT       -35.1820  -71.1660   -3.0830 O         1 <0>         0.0000
  22028 WAT       -35.1820  -71.1660   -2.8330 O         1 <0>         0.0000
  22029 WAT       -35.1820  -71.1660   -2.5830 O         1 <0>         0.0000
  22030 WAT       -35.1820  -71.1660   -2.3330 O         1 <0>         0.0000
  22031 WAT       -35.1820  -71.1660   -2.0830 O         1 <0>         0.0000
  22032 WAT       -35.1820  -71.1660   -1.8330 O         1 <0>         0.0000
  22033 WAT       -35.1820  -71.1660   -1.5830 O         1 <0>         0.0000
  22034 WAT       -35.1820  -71.1660   -1.3330 O         1 <0>         0.0000
  22035 WAT       -35.1820  -71.1660   -1.0830 O         1 <0>         0.0000
  22036 WAT       -35.1820  -71.1660   -0.8330 O         1 <0>         0.0000
  22037 WAT       -35.1820  -71.1660   -0.5830 O         1 <0>         0.0000
  22038 WAT       -35.1820  -71.1660   -0.3330 O         1 <0>         0.0000
  22039 WAT       -35.1820  -71.1660   -0.0830 O         1 <0>         0.0000
  22040 WAT       -35.1820  -70.9160   -9.8330 O         1 <0>         0.0000
  22041 WAT       -35.1820  -70.9160   -9.5830 O         1 <0>         0.0000
  22042 WAT       -35.1820  -70.9160   -9.3330 O         1 <0>         0.0000
  22043 WAT       -35.1820  -70.9160   -9.0830 O         1 <0>         0.0000
  22044 WAT       -35.1820  -70.9160   -8.8330 O         1 <0>         0.0000
  22045 WAT       -35.1820  -70.9160   -8.5830 O         1 <0>         0.0000
  22046 WAT       -35.1820  -70.9160   -8.3330 O         1 <0>         0.0007
  22047 WAT       -35.1820  -70.9160   -8.0830 O         1 <0>         0.0051
  22048 WAT       -35.1820  -70.9160   -7.8330 O         1 <0>         0.0178
  22049 WAT       -35.1820  -70.9160   -7.5830 O         1 <0>         0.0361
  22050 WAT       -35.1820  -70.9160   -7.3330 O         1 <0>         0.0451
  22051 WAT       -35.1820  -70.9160   -7.0830 O         1 <0>         0.0353
  22052 WAT       -35.1820  -70.9160   -6.8330 O         1 <0>         0.0170
  22053 WAT       -35.1820  -70.9160   -6.5830 O         1 <0>         0.0048
  22054 WAT       -35.1820  -70.9160   -6.3330 O         1 <0>         0.0006
  22055 WAT       -35.1820  -70.9160   -6.0830 O         1 <0>         0.0000
  22056 WAT       -35.1820  -70.9160   -5.8330 O         1 <0>         0.0000
  22057 WAT       -35.1820  -70.9160   -5.5830 O         1 <0>         0.0000
  22058 WAT       -35.1820  -70.9160   -5.3330 O         1 <0>         0.0000
  22059 WAT       -35.1820  -70.9160   -5.0830 O         1 <0>         0.0000
  22060 WAT       -35.1820  -70.9160   -4.8330 O         1 <0>         0.0000
  22061 WAT       -35.1820  -70.9160   -4.5830 O         1 <0>         0.0000
  22062 WAT       -35.1820  -70.9160   -4.3330 O         1 <0>         0.0000
  22063 WAT       -35.1820  -70.9160   -4.0830 O         1 <0>         0.0000
  22064 WAT       -35.1820  -70.9160   -3.8330 O         1 <0>         0.0000
  22065 WAT       -35.1820  -70.9160   -3.5830 O         1 <0>         0.0000
  22066 WAT       -35.1820  -70.9160   -3.3330 O         1 <0>         0.0000
  22067 WAT       -35.1820  -70.9160   -3.0830 O         1 <0>         0.0000
  22068 WAT       -35.1820  -70.9160   -2.8330 O         1 <0>         0.0000
  22069 WAT       -35.1820  -70.9160   -2.5830 O         1 <0>         0.0000
  22070 WAT       -35.1820  -70.9160   -2.3330 O         1 <0>         0.0000
  22071 WAT       -35.1820  -70.9160   -2.0830 O         1 <0>         0.0000
  22072 WAT       -35.1820  -70.9160   -1.8330 O         1 <0>         0.0000
  22073 WAT       -35.1820  -70.9160   -1.5830 O         1 <0>         0.0000
  22074 WAT       -35.1820  -70.9160   -1.3330 O         1 <0>         0.0000
  22075 WAT       -35.1820  -70.9160   -1.0830 O         1 <0>         0.0000
  22076 WAT       -35.1820  -70.9160   -0.8330 O         1 <0>         0.0000
  22077 WAT       -35.1820  -70.9160   -0.5830 O         1 <0>         0.0000
  22078 WAT       -35.1820  -70.9160   -0.3330 O         1 <0>         0.0000
  22079 WAT       -35.1820  -70.9160   -0.0830 O         1 <0>         0.0000
  22080 WAT       -35.1820  -70.6660   -9.8330 O         1 <0>         0.0000
  22081 WAT       -35.1820  -70.6660   -9.5830 O         1 <0>         0.0000
  22082 WAT       -35.1820  -70.6660   -9.3330 O         1 <0>         0.0000
  22083 WAT       -35.1820  -70.6660   -9.0830 O         1 <0>         0.0000
  22084 WAT       -35.1820  -70.6660   -8.8330 O         1 <0>         0.0000
  22085 WAT       -35.1820  -70.6660   -8.5830 O         1 <0>         0.0000
  22086 WAT       -35.1820  -70.6660   -8.3330 O         1 <0>         0.0002
  22087 WAT       -35.1820  -70.6660   -8.0830 O         1 <0>         0.0015
  22088 WAT       -35.1820  -70.6660   -7.8330 O         1 <0>         0.0054
  22089 WAT       -35.1820  -70.6660   -7.5830 O         1 <0>         0.0112
  22090 WAT       -35.1820  -70.6660   -7.3330 O         1 <0>         0.0140
  22091 WAT       -35.1820  -70.6660   -7.0830 O         1 <0>         0.0110
  22092 WAT       -35.1820  -70.6660   -6.8330 O         1 <0>         0.0052
  22093 WAT       -35.1820  -70.6660   -6.5830 O         1 <0>         0.0014
  22094 WAT       -35.1820  -70.6660   -6.3330 O         1 <0>         0.0002
  22095 WAT       -35.1820  -70.6660   -6.0830 O         1 <0>         0.0000
  22096 WAT       -35.1820  -70.6660   -5.8330 O         1 <0>         0.0000
  22097 WAT       -35.1820  -70.6660   -5.5830 O         1 <0>         0.0000
  22098 WAT       -35.1820  -70.6660   -5.3330 O         1 <0>         0.0000
  22099 WAT       -35.1820  -70.6660   -5.0830 O         1 <0>         0.0000
  22100 WAT       -35.1820  -70.6660   -4.8330 O         1 <0>         0.0000
  22101 WAT       -35.1820  -70.6660   -4.5830 O         1 <0>         0.0000
  22102 WAT       -35.1820  -70.6660   -4.3330 O         1 <0>         0.0000
  22103 WAT       -35.1820  -70.6660   -4.0830 O         1 <0>         0.0000
  22104 WAT       -35.1820  -70.6660   -3.8330 O         1 <0>         0.0000
  22105 WAT       -35.1820  -70.6660   -3.5830 O         1 <0>         0.0000
  22106 WAT       -35.1820  -70.6660   -3.3330 O         1 <0>         0.0000
  22107 WAT       -35.1820  -70.6660   -3.0830 O         1 <0>         0.0000
  22108 WAT       -35.1820  -70.6660   -2.8330 O         1 <0>         0.0000
  22109 WAT       -35.1820  -70.6660   -2.5830 O         1 <0>         0.0000
  22110 WAT       -35.1820  -70.6660   -2.3330 O         1 <0>         0.0000
  22111 WAT       -35.1820  -70.6660   -2.0830 O         1 <0>         0.0000
  22112 WAT       -35.1820  -70.6660   -1.8330 O         1 <0>         0.0000
  22113 WAT       -35.1820  -70.6660   -1.5830 O         1 <0>         0.0000
  22114 WAT       -35.1820  -70.6660   -1.3330 O         1 <0>         0.0000
  22115 WAT       -35.1820  -70.6660   -1.0830 O         1 <0>         0.0000
  22116 WAT       -35.1820  -70.6660   -0.8330 O         1 <0>         0.0000
  22117 WAT       -35.1820  -70.6660   -0.5830 O         1 <0>         0.0000
  22118 WAT       -35.1820  -70.6660   -0.3330 O         1 <0>         0.0000
  22119 WAT       -35.1820  -70.6660   -0.0830 O         1 <0>         0.0000
  22120 WAT       -35.1820  -70.4160   -9.8330 O         1 <0>         0.0000
  22121 WAT       -35.1820  -70.4160   -9.5830 O         1 <0>         0.0000
  22122 WAT       -35.1820  -70.4160   -9.3330 O         1 <0>         0.0000
  22123 WAT       -35.1820  -70.4160   -9.0830 O         1 <0>         0.0000
  22124 WAT       -35.1820  -70.4160   -8.8330 O         1 <0>         0.0000
  22125 WAT       -35.1820  -70.4160   -8.5830 O         1 <0>         0.0000
  22126 WAT       -35.1820  -70.4160   -8.3330 O         1 <0>         0.0000
  22127 WAT       -35.1820  -70.4160   -8.0830 O         1 <0>         0.0003
  22128 WAT       -35.1820  -70.4160   -7.8330 O         1 <0>         0.0011
  22129 WAT       -35.1820  -70.4160   -7.5830 O         1 <0>         0.0024
  22130 WAT       -35.1820  -70.4160   -7.3330 O         1 <0>         0.0032
  22131 WAT       -35.1820  -70.4160   -7.0830 O         1 <0>         0.0025
  22132 WAT       -35.1820  -70.4160   -6.8330 O         1 <0>         0.0012
  22133 WAT       -35.1820  -70.4160   -6.5830 O         1 <0>         0.0003
  22134 WAT       -35.1820  -70.4160   -6.3330 O         1 <0>         0.0001
  22135 WAT       -35.1820  -70.4160   -6.0830 O         1 <0>         0.0000
  22136 WAT       -35.1820  -70.4160   -5.8330 O         1 <0>         0.0000
  22137 WAT       -35.1820  -70.4160   -5.5830 O         1 <0>         0.0000
  22138 WAT       -35.1820  -70.4160   -5.3330 O         1 <0>         0.0000
  22139 WAT       -35.1820  -70.4160   -5.0830 O         1 <0>         0.0000
  22140 WAT       -35.1820  -70.4160   -4.8330 O         1 <0>         0.0000
  22141 WAT       -35.1820  -70.4160   -4.5830 O         1 <0>         0.0000
  22142 WAT       -35.1820  -70.4160   -4.3330 O         1 <0>         0.0000
  22143 WAT       -35.1820  -70.4160   -4.0830 O         1 <0>         0.0000
  22144 WAT       -35.1820  -70.4160   -3.8330 O         1 <0>         0.0000
  22145 WAT       -35.1820  -70.4160   -3.5830 O         1 <0>         0.0000
  22146 WAT       -35.1820  -70.4160   -3.3330 O         1 <0>         0.0000
  22147 WAT       -35.1820  -70.4160   -3.0830 O         1 <0>         0.0000
  22148 WAT       -35.1820  -70.4160   -2.8330 O         1 <0>         0.0000
  22149 WAT       -35.1820  -70.4160   -2.5830 O         1 <0>         0.0000
  22150 WAT       -35.1820  -70.4160   -2.3330 O         1 <0>         0.0000
  22151 WAT       -35.1820  -70.4160   -2.0830 O         1 <0>         0.0000
  22152 WAT       -35.1820  -70.4160   -1.8330 O         1 <0>         0.0000
  22153 WAT       -35.1820  -70.4160   -1.5830 O         1 <0>         0.0000
  22154 WAT       -35.1820  -70.4160   -1.3330 O         1 <0>         0.0000
  22155 WAT       -35.1820  -70.4160   -1.0830 O         1 <0>         0.0000
  22156 WAT       -35.1820  -70.4160   -0.8330 O         1 <0>         0.0000
  22157 WAT       -35.1820  -70.4160   -0.5830 O         1 <0>         0.0000
  22158 WAT       -35.1820  -70.4160   -0.3330 O         1 <0>         0.0000
  22159 WAT       -35.1820  -70.4160   -0.0830 O         1 <0>         0.0000
  22160 WAT       -35.1820  -70.1660   -9.8330 O         1 <0>         0.0000
  22161 WAT       -35.1820  -70.1660   -9.5830 O         1 <0>         0.0000
  22162 WAT       -35.1820  -70.1660   -9.3330 O         1 <0>         0.0000
  22163 WAT       -35.1820  -70.1660   -9.0830 O         1 <0>         0.0000
  22164 WAT       -35.1820  -70.1660   -8.8330 O         1 <0>         0.0000
  22165 WAT       -35.1820  -70.1660   -8.5830 O         1 <0>         0.0000
  22166 WAT       -35.1820  -70.1660   -8.3330 O         1 <0>         0.0000
  22167 WAT       -35.1820  -70.1660   -8.0830 O         1 <0>         0.0000
  22168 WAT       -35.1820  -70.1660   -7.8330 O         1 <0>         0.0001
  22169 WAT       -35.1820  -70.1660   -7.5830 O         1 <0>         0.0003
  22170 WAT       -35.1820  -70.1660   -7.3330 O         1 <0>         0.0005
  22171 WAT       -35.1820  -70.1660   -7.0830 O         1 <0>         0.0004
  22172 WAT       -35.1820  -70.1660   -6.8330 O         1 <0>         0.0002
  22173 WAT       -35.1820  -70.1660   -6.5830 O         1 <0>         0.0001
  22174 WAT       -35.1820  -70.1660   -6.3330 O         1 <0>         0.0000
  22175 WAT       -35.1820  -70.1660   -6.0830 O         1 <0>         0.0000
  22176 WAT       -35.1820  -70.1660   -5.8330 O         1 <0>         0.0000
  22177 WAT       -35.1820  -70.1660   -5.5830 O         1 <0>         0.0000
  22178 WAT       -35.1820  -70.1660   -5.3330 O         1 <0>         0.0000
  22179 WAT       -35.1820  -70.1660   -5.0830 O         1 <0>         0.0000
  22180 WAT       -35.1820  -70.1660   -4.8330 O         1 <0>         0.0000
  22181 WAT       -35.1820  -70.1660   -4.5830 O         1 <0>         0.0000
  22182 WAT       -35.1820  -70.1660   -4.3330 O         1 <0>         0.0000
  22183 WAT       -35.1820  -70.1660   -4.0830 O         1 <0>         0.0000
  22184 WAT       -35.1820  -70.1660   -3.8330 O         1 <0>         0.0000
  22185 WAT       -35.1820  -70.1660   -3.5830 O         1 <0>         0.0000
  22186 WAT       -35.1820  -70.1660   -3.3330 O         1 <0>         0.0000
  22187 WAT       -35.1820  -70.1660   -3.0830 O         1 <0>         0.0000
  22188 WAT       -35.1820  -70.1660   -2.8330 O         1 <0>         0.0000
  22189 WAT       -35.1820  -70.1660   -2.5830 O         1 <0>         0.0000
  22190 WAT       -35.1820  -70.1660   -2.3330 O         1 <0>         0.0000
  22191 WAT       -35.1820  -70.1660   -2.0830 O         1 <0>         0.0000
  22192 WAT       -35.1820  -70.1660   -1.8330 O         1 <0>         0.0000
  22193 WAT       -35.1820  -70.1660   -1.5830 O         1 <0>         0.0000
  22194 WAT       -35.1820  -70.1660   -1.3330 O         1 <0>         0.0000
  22195 WAT       -35.1820  -70.1660   -1.0830 O         1 <0>         0.0000
  22196 WAT       -35.1820  -70.1660   -0.8330 O         1 <0>         0.0000
  22197 WAT       -35.1820  -70.1660   -0.5830 O         1 <0>         0.0000
  22198 WAT       -35.1820  -70.1660   -0.3330 O         1 <0>         0.0000
  22199 WAT       -35.1820  -70.1660   -0.0830 O         1 <0>         0.0000
  22200 WAT       -35.1820  -69.9160   -9.8330 O         1 <0>         0.0000
  22201 WAT       -35.1820  -69.9160   -9.5830 O         1 <0>         0.0000
  22202 WAT       -35.1820  -69.9160   -9.3330 O         1 <0>         0.0000
  22203 WAT       -35.1820  -69.9160   -9.0830 O         1 <0>         0.0000
  22204 WAT       -35.1820  -69.9160   -8.8330 O         1 <0>         0.0000
  22205 WAT       -35.1820  -69.9160   -8.5830 O         1 <0>         0.0000
  22206 WAT       -35.1820  -69.9160   -8.3330 O         1 <0>         0.0000
  22207 WAT       -35.1820  -69.9160   -8.0830 O         1 <0>         0.0000
  22208 WAT       -35.1820  -69.9160   -7.8330 O         1 <0>         0.0000
  22209 WAT       -35.1820  -69.9160   -7.5830 O         1 <0>         0.0000
  22210 WAT       -35.1820  -69.9160   -7.3330 O         1 <0>         0.0000
  22211 WAT       -35.1820  -69.9160   -7.0830 O         1 <0>         0.0000
  22212 WAT       -35.1820  -69.9160   -6.8330 O         1 <0>         0.0000
  22213 WAT       -35.1820  -69.9160   -6.5830 O         1 <0>         0.0000
  22214 WAT       -35.1820  -69.9160   -6.3330 O         1 <0>         0.0000
  22215 WAT       -35.1820  -69.9160   -6.0830 O         1 <0>         0.0000
  22216 WAT       -35.1820  -69.9160   -5.8330 O         1 <0>         0.0000
  22217 WAT       -35.1820  -69.9160   -5.5830 O         1 <0>         0.0000
  22218 WAT       -35.1820  -69.9160   -5.3330 O         1 <0>         0.0000
  22219 WAT       -35.1820  -69.9160   -5.0830 O         1 <0>         0.0000
  22220 WAT       -35.1820  -69.9160   -4.8330 O         1 <0>         0.0000
  22221 WAT       -35.1820  -69.9160   -4.5830 O         1 <0>         0.0000
  22222 WAT       -35.1820  -69.9160   -4.3330 O         1 <0>         0.0000
  22223 WAT       -35.1820  -69.9160   -4.0830 O         1 <0>         0.0000
  22224 WAT       -35.1820  -69.9160   -3.8330 O         1 <0>         0.0000
  22225 WAT       -35.1820  -69.9160   -3.5830 O         1 <0>         0.0000
  22226 WAT       -35.1820  -69.9160   -3.3330 O         1 <0>         0.0000
  22227 WAT       -35.1820  -69.9160   -3.0830 O         1 <0>         0.0000
  22228 WAT       -35.1820  -69.9160   -2.8330 O         1 <0>         0.0000
  22229 WAT       -35.1820  -69.9160   -2.5830 O         1 <0>         0.0000
  22230 WAT       -35.1820  -69.9160   -2.3330 O         1 <0>         0.0000
  22231 WAT       -35.1820  -69.9160   -2.0830 O         1 <0>         0.0000
  22232 WAT       -35.1820  -69.9160   -1.8330 O         1 <0>         0.0000
  22233 WAT       -35.1820  -69.9160   -1.5830 O         1 <0>         0.0000
  22234 WAT       -35.1820  -69.9160   -1.3330 O         1 <0>         0.0000
  22235 WAT       -35.1820  -69.9160   -1.0830 O         1 <0>         0.0000
  22236 WAT       -35.1820  -69.9160   -0.8330 O         1 <0>         0.0000
  22237 WAT       -35.1820  -69.9160   -0.5830 O         1 <0>         0.0000
  22238 WAT       -35.1820  -69.9160   -0.3330 O         1 <0>         0.0000
  22239 WAT       -35.1820  -69.9160   -0.0830 O         1 <0>         0.0000
  22240 WAT       -35.1820  -69.6660   -9.8330 O         1 <0>         0.0000
  22241 WAT       -35.1820  -69.6660   -9.5830 O         1 <0>         0.0000
  22242 WAT       -35.1820  -69.6660   -9.3330 O         1 <0>         0.0000
  22243 WAT       -35.1820  -69.6660   -9.0830 O         1 <0>         0.0000
  22244 WAT       -35.1820  -69.6660   -8.8330 O         1 <0>         0.0000
  22245 WAT       -35.1820  -69.6660   -8.5830 O         1 <0>         0.0000
  22246 WAT       -35.1820  -69.6660   -8.3330 O         1 <0>         0.0000
  22247 WAT       -35.1820  -69.6660   -8.0830 O         1 <0>         0.0000
  22248 WAT       -35.1820  -69.6660   -7.8330 O         1 <0>         0.0000
  22249 WAT       -35.1820  -69.6660   -7.5830 O         1 <0>         0.0000
  22250 WAT       -35.1820  -69.6660   -7.3330 O         1 <0>         0.0000
  22251 WAT       -35.1820  -69.6660   -7.0830 O         1 <0>         0.0000
  22252 WAT       -35.1820  -69.6660   -6.8330 O         1 <0>         0.0000
  22253 WAT       -35.1820  -69.6660   -6.5830 O         1 <0>         0.0000
  22254 WAT       -35.1820  -69.6660   -6.3330 O         1 <0>         0.0000
  22255 WAT       -35.1820  -69.6660   -6.0830 O         1 <0>         0.0000
  22256 WAT       -35.1820  -69.6660   -5.8330 O         1 <0>         0.0000
  22257 WAT       -35.1820  -69.6660   -5.5830 O         1 <0>         0.0000
  22258 WAT       -35.1820  -69.6660   -5.3330 O         1 <0>         0.0000
  22259 WAT       -35.1820  -69.6660   -5.0830 O         1 <0>         0.0000
  22260 WAT       -35.1820  -69.6660   -4.8330 O         1 <0>         0.0000
  22261 WAT       -35.1820  -69.6660   -4.5830 O         1 <0>         0.0000
  22262 WAT       -35.1820  -69.6660   -4.3330 O         1 <0>         0.0000
  22263 WAT       -35.1820  -69.6660   -4.0830 O         1 <0>         0.0000
  22264 WAT       -35.1820  -69.6660   -3.8330 O         1 <0>         0.0000
  22265 WAT       -35.1820  -69.6660   -3.5830 O         1 <0>         0.0000
  22266 WAT       -35.1820  -69.6660   -3.3330 O         1 <0>         0.0000
  22267 WAT       -35.1820  -69.6660   -3.0830 O         1 <0>         0.0000
  22268 WAT       -35.1820  -69.6660   -2.8330 O         1 <0>         0.0000
  22269 WAT       -35.1820  -69.6660   -2.5830 O         1 <0>         0.0000
  22270 WAT       -35.1820  -69.6660   -2.3330 O         1 <0>         0.0000
  22271 WAT       -35.1820  -69.6660   -2.0830 O         1 <0>         0.0000
  22272 WAT       -35.1820  -69.6660   -1.8330 O         1 <0>         0.0000
  22273 WAT       -35.1820  -69.6660   -1.5830 O         1 <0>         0.0000
  22274 WAT       -35.1820  -69.6660   -1.3330 O         1 <0>         0.0000
  22275 WAT       -35.1820  -69.6660   -1.0830 O         1 <0>         0.0000
  22276 WAT       -35.1820  -69.6660   -0.8330 O         1 <0>         0.0000
  22277 WAT       -35.1820  -69.6660   -0.5830 O         1 <0>         0.0000
  22278 WAT       -35.1820  -69.6660   -0.3330 O         1 <0>         0.0000
  22279 WAT       -35.1820  -69.6660   -0.0830 O         1 <0>         0.0000
  22280 WAT       -35.1820  -69.4160   -9.8330 O         1 <0>         0.0000
  22281 WAT       -35.1820  -69.4160   -9.5830 O         1 <0>         0.0000
  22282 WAT       -35.1820  -69.4160   -9.3330 O         1 <0>         0.0000
  22283 WAT       -35.1820  -69.4160   -9.0830 O         1 <0>         0.0000
  22284 WAT       -35.1820  -69.4160   -8.8330 O         1 <0>         0.0000
  22285 WAT       -35.1820  -69.4160   -8.5830 O         1 <0>         0.0000
  22286 WAT       -35.1820  -69.4160   -8.3330 O         1 <0>         0.0000
  22287 WAT       -35.1820  -69.4160   -8.0830 O         1 <0>         0.0000
  22288 WAT       -35.1820  -69.4160   -7.8330 O         1 <0>         0.0000
  22289 WAT       -35.1820  -69.4160   -7.5830 O         1 <0>         0.0000
  22290 WAT       -35.1820  -69.4160   -7.3330 O         1 <0>         0.0000
  22291 WAT       -35.1820  -69.4160   -7.0830 O         1 <0>         0.0000
  22292 WAT       -35.1820  -69.4160   -6.8330 O         1 <0>         0.0000
  22293 WAT       -35.1820  -69.4160   -6.5830 O         1 <0>         0.0000
  22294 WAT       -35.1820  -69.4160   -6.3330 O         1 <0>         0.0000
  22295 WAT       -35.1820  -69.4160   -6.0830 O         1 <0>         0.0000
  22296 WAT       -35.1820  -69.4160   -5.8330 O         1 <0>         0.0000
  22297 WAT       -35.1820  -69.4160   -5.5830 O         1 <0>         0.0000
  22298 WAT       -35.1820  -69.4160   -5.3330 O         1 <0>         0.0000
  22299 WAT       -35.1820  -69.4160   -5.0830 O         1 <0>         0.0000
  22300 WAT       -35.1820  -69.4160   -4.8330 O         1 <0>         0.0000
  22301 WAT       -35.1820  -69.4160   -4.5830 O         1 <0>         0.0000
  22302 WAT       -35.1820  -69.4160   -4.3330 O         1 <0>         0.0000
  22303 WAT       -35.1820  -69.4160   -4.0830 O         1 <0>         0.0000
  22304 WAT       -35.1820  -69.4160   -3.8330 O         1 <0>         0.0000
  22305 WAT       -35.1820  -69.4160   -3.5830 O         1 <0>         0.0000
  22306 WAT       -35.1820  -69.4160   -3.3330 O         1 <0>         0.0000
  22307 WAT       -35.1820  -69.4160   -3.0830 O         1 <0>         0.0000
  22308 WAT       -35.1820  -69.4160   -2.8330 O         1 <0>         0.0000
  22309 WAT       -35.1820  -69.4160   -2.5830 O         1 <0>         0.0000
  22310 WAT       -35.1820  -69.4160   -2.3330 O         1 <0>         0.0000
  22311 WAT       -35.1820  -69.4160   -2.0830 O         1 <0>         0.0000
  22312 WAT       -35.1820  -69.4160   -1.8330 O         1 <0>         0.0000
  22313 WAT       -35.1820  -69.4160   -1.5830 O         1 <0>         0.0000
  22314 WAT       -35.1820  -69.4160   -1.3330 O         1 <0>         0.0000
  22315 WAT       -35.1820  -69.4160   -1.0830 O         1 <0>         0.0000
  22316 WAT       -35.1820  -69.4160   -0.8330 O         1 <0>         0.0000
  22317 WAT       -35.1820  -69.4160   -0.5830 O         1 <0>         0.0000
  22318 WAT       -35.1820  -69.4160   -0.3330 O         1 <0>         0.0000
  22319 WAT       -35.1820  -69.4160   -0.0830 O         1 <0>         0.0000
  22320 WAT       -35.1820  -69.1660   -9.8330 O         1 <0>         0.0000
  22321 WAT       -35.1820  -69.1660   -9.5830 O         1 <0>         0.0000
  22322 WAT       -35.1820  -69.1660   -9.3330 O         1 <0>         0.0000
  22323 WAT       -35.1820  -69.1660   -9.0830 O         1 <0>         0.0000
  22324 WAT       -35.1820  -69.1660   -8.8330 O         1 <0>         0.0000
  22325 WAT       -35.1820  -69.1660   -8.5830 O         1 <0>         0.0000
  22326 WAT       -35.1820  -69.1660   -8.3330 O         1 <0>         0.0000
  22327 WAT       -35.1820  -69.1660   -8.0830 O         1 <0>         0.0000
  22328 WAT       -35.1820  -69.1660   -7.8330 O         1 <0>         0.0000
  22329 WAT       -35.1820  -69.1660   -7.5830 O         1 <0>         0.0000
  22330 WAT       -35.1820  -69.1660   -7.3330 O         1 <0>         0.0000
  22331 WAT       -35.1820  -69.1660   -7.0830 O         1 <0>         0.0000
  22332 WAT       -35.1820  -69.1660   -6.8330 O         1 <0>         0.0000
  22333 WAT       -35.1820  -69.1660   -6.5830 O         1 <0>         0.0000
  22334 WAT       -35.1820  -69.1660   -6.3330 O         1 <0>         0.0000
  22335 WAT       -35.1820  -69.1660   -6.0830 O         1 <0>         0.0000
  22336 WAT       -35.1820  -69.1660   -5.8330 O         1 <0>         0.0000
  22337 WAT       -35.1820  -69.1660   -5.5830 O         1 <0>         0.0000
  22338 WAT       -35.1820  -69.1660   -5.3330 O         1 <0>         0.0000
  22339 WAT       -35.1820  -69.1660   -5.0830 O         1 <0>         0.0000
  22340 WAT       -35.1820  -69.1660   -4.8330 O         1 <0>         0.0000
  22341 WAT       -35.1820  -69.1660   -4.5830 O         1 <0>         0.0000
  22342 WAT       -35.1820  -69.1660   -4.3330 O         1 <0>         0.0000
  22343 WAT       -35.1820  -69.1660   -4.0830 O         1 <0>         0.0000
  22344 WAT       -35.1820  -69.1660   -3.8330 O         1 <0>         0.0000
  22345 WAT       -35.1820  -69.1660   -3.5830 O         1 <0>         0.0000
  22346 WAT       -35.1820  -69.1660   -3.3330 O         1 <0>         0.0000
  22347 WAT       -35.1820  -69.1660   -3.0830 O         1 <0>         0.0000
  22348 WAT       -35.1820  -69.1660   -2.8330 O         1 <0>         0.0000
  22349 WAT       -35.1820  -69.1660   -2.5830 O         1 <0>         0.0000
  22350 WAT       -35.1820  -69.1660   -2.3330 O         1 <0>         0.0000
  22351 WAT       -35.1820  -69.1660   -2.0830 O         1 <0>         0.0000
  22352 WAT       -35.1820  -69.1660   -1.8330 O         1 <0>         0.0000
  22353 WAT       -35.1820  -69.1660   -1.5830 O         1 <0>         0.0000
  22354 WAT       -35.1820  -69.1660   -1.3330 O         1 <0>         0.0000
  22355 WAT       -35.1820  -69.1660   -1.0830 O         1 <0>         0.0000
  22356 WAT       -35.1820  -69.1660   -0.8330 O         1 <0>         0.0000
  22357 WAT       -35.1820  -69.1660   -0.5830 O         1 <0>         0.0000
  22358 WAT       -35.1820  -69.1660   -0.3330 O         1 <0>         0.0000
  22359 WAT       -35.1820  -69.1660   -0.0830 O         1 <0>         0.0000
  22360 WAT       -35.1820  -68.9160   -9.8330 O         1 <0>         0.0000
  22361 WAT       -35.1820  -68.9160   -9.5830 O         1 <0>         0.0000
  22362 WAT       -35.1820  -68.9160   -9.3330 O         1 <0>         0.0000
  22363 WAT       -35.1820  -68.9160   -9.0830 O         1 <0>         0.0000
  22364 WAT       -35.1820  -68.9160   -8.8330 O         1 <0>         0.0000
  22365 WAT       -35.1820  -68.9160   -8.5830 O         1 <0>         0.0000
  22366 WAT       -35.1820  -68.9160   -8.3330 O         1 <0>         0.0000
  22367 WAT       -35.1820  -68.9160   -8.0830 O         1 <0>         0.0000
  22368 WAT       -35.1820  -68.9160   -7.8330 O         1 <0>         0.0000
  22369 WAT       -35.1820  -68.9160   -7.5830 O         1 <0>         0.0000
  22370 WAT       -35.1820  -68.9160   -7.3330 O         1 <0>         0.0000
  22371 WAT       -35.1820  -68.9160   -7.0830 O         1 <0>         0.0000
  22372 WAT       -35.1820  -68.9160   -6.8330 O         1 <0>         0.0000
  22373 WAT       -35.1820  -68.9160   -6.5830 O         1 <0>         0.0000
  22374 WAT       -35.1820  -68.9160   -6.3330 O         1 <0>         0.0000
  22375 WAT       -35.1820  -68.9160   -6.0830 O         1 <0>         0.0000
  22376 WAT       -35.1820  -68.9160   -5.8330 O         1 <0>         0.0000
  22377 WAT       -35.1820  -68.9160   -5.5830 O         1 <0>         0.0000
  22378 WAT       -35.1820  -68.9160   -5.3330 O         1 <0>         0.0000
  22379 WAT       -35.1820  -68.9160   -5.0830 O         1 <0>         0.0000
  22380 WAT       -35.1820  -68.9160   -4.8330 O         1 <0>         0.0000
  22381 WAT       -35.1820  -68.9160   -4.5830 O         1 <0>         0.0000
  22382 WAT       -35.1820  -68.9160   -4.3330 O         1 <0>         0.0000
  22383 WAT       -35.1820  -68.9160   -4.0830 O         1 <0>         0.0000
  22384 WAT       -35.1820  -68.9160   -3.8330 O         1 <0>         0.0000
  22385 WAT       -35.1820  -68.9160   -3.5830 O         1 <0>         0.0000
  22386 WAT       -35.1820  -68.9160   -3.3330 O         1 <0>         0.0000
  22387 WAT       -35.1820  -68.9160   -3.0830 O         1 <0>         0.0000
  22388 WAT       -35.1820  -68.9160   -2.8330 O         1 <0>         0.0000
  22389 WAT       -35.1820  -68.9160   -2.5830 O         1 <0>         0.0000
  22390 WAT       -35.1820  -68.9160   -2.3330 O         1 <0>         0.0000
  22391 WAT       -35.1820  -68.9160   -2.0830 O         1 <0>         0.0000
  22392 WAT       -35.1820  -68.9160   -1.8330 O         1 <0>         0.0000
  22393 WAT       -35.1820  -68.9160   -1.5830 O         1 <0>         0.0000
  22394 WAT       -35.1820  -68.9160   -1.3330 O         1 <0>         0.0000
  22395 WAT       -35.1820  -68.9160   -1.0830 O         1 <0>         0.0000
  22396 WAT       -35.1820  -68.9160   -0.8330 O         1 <0>         0.0000
  22397 WAT       -35.1820  -68.9160   -0.5830 O         1 <0>         0.0000
  22398 WAT       -35.1820  -68.9160   -0.3330 O         1 <0>         0.0000
  22399 WAT       -35.1820  -68.9160   -0.0830 O         1 <0>         0.0000
  22400 WAT       -34.9320  -77.4160   -9.8330 O         1 <0>         0.0000
  22401 WAT       -34.9320  -77.4160   -9.5830 O         1 <0>         0.0000
  22402 WAT       -34.9320  -77.4160   -9.3330 O         1 <0>         0.0000
  22403 WAT       -34.9320  -77.4160   -9.0830 O         1 <0>         0.0000
  22404 WAT       -34.9320  -77.4160   -8.8330 O         1 <0>         0.0000
  22405 WAT       -34.9320  -77.4160   -8.5830 O         1 <0>         0.0000
  22406 WAT       -34.9320  -77.4160   -8.3330 O         1 <0>         0.0000
  22407 WAT       -34.9320  -77.4160   -8.0830 O         1 <0>         0.0000
  22408 WAT       -34.9320  -77.4160   -7.8330 O         1 <0>         0.0000
  22409 WAT       -34.9320  -77.4160   -7.5830 O         1 <0>         0.0000
  22410 WAT       -34.9320  -77.4160   -7.3330 O         1 <0>         0.0000
  22411 WAT       -34.9320  -77.4160   -7.0830 O         1 <0>         0.0000
  22412 WAT       -34.9320  -77.4160   -6.8330 O         1 <0>         0.0000
  22413 WAT       -34.9320  -77.4160   -6.5830 O         1 <0>         0.0000
  22414 WAT       -34.9320  -77.4160   -6.3330 O         1 <0>         0.0000
  22415 WAT       -34.9320  -77.4160   -6.0830 O         1 <0>         0.0000
  22416 WAT       -34.9320  -77.4160   -5.8330 O         1 <0>         0.0000
  22417 WAT       -34.9320  -77.4160   -5.5830 O         1 <0>         0.0000
  22418 WAT       -34.9320  -77.4160   -5.3330 O         1 <0>         0.0000
  22419 WAT       -34.9320  -77.4160   -5.0830 O         1 <0>         0.0000
  22420 WAT       -34.9320  -77.4160   -4.8330 O         1 <0>         0.0000
  22421 WAT       -34.9320  -77.4160   -4.5830 O         1 <0>         0.0000
  22422 WAT       -34.9320  -77.4160   -4.3330 O         1 <0>         0.0000
  22423 WAT       -34.9320  -77.4160   -4.0830 O         1 <0>         0.0000
  22424 WAT       -34.9320  -77.4160   -3.8330 O         1 <0>         0.0000
  22425 WAT       -34.9320  -77.4160   -3.5830 O         1 <0>         0.0000
  22426 WAT       -34.9320  -77.4160   -3.3330 O         1 <0>         0.0000
  22427 WAT       -34.9320  -77.4160   -3.0830 O         1 <0>         0.0000
  22428 WAT       -34.9320  -77.4160   -2.8330 O         1 <0>         0.0000
  22429 WAT       -34.9320  -77.4160   -2.5830 O         1 <0>         0.0000
  22430 WAT       -34.9320  -77.4160   -2.3330 O         1 <0>         0.0000
  22431 WAT       -34.9320  -77.4160   -2.0830 O         1 <0>         0.0000
  22432 WAT       -34.9320  -77.4160   -1.8330 O         1 <0>         0.0000
  22433 WAT       -34.9320  -77.4160   -1.5830 O         1 <0>         0.0000
  22434 WAT       -34.9320  -77.4160   -1.3330 O         1 <0>         0.0000
  22435 WAT       -34.9320  -77.4160   -1.0830 O         1 <0>         0.0000
  22436 WAT       -34.9320  -77.4160   -0.8330 O         1 <0>         0.0000
  22437 WAT       -34.9320  -77.4160   -0.5830 O         1 <0>         0.0000
  22438 WAT       -34.9320  -77.4160   -0.3330 O         1 <0>         0.0000
  22439 WAT       -34.9320  -77.4160   -0.0830 O         1 <0>         0.0000
  22440 WAT       -34.9320  -77.1660   -9.8330 O         1 <0>         0.0000
  22441 WAT       -34.9320  -77.1660   -9.5830 O         1 <0>         0.0000
  22442 WAT       -34.9320  -77.1660   -9.3330 O         1 <0>         0.0000
  22443 WAT       -34.9320  -77.1660   -9.0830 O         1 <0>         0.0000
  22444 WAT       -34.9320  -77.1660   -8.8330 O         1 <0>         0.0000
  22445 WAT       -34.9320  -77.1660   -8.5830 O         1 <0>         0.0000
  22446 WAT       -34.9320  -77.1660   -8.3330 O         1 <0>         0.0000
  22447 WAT       -34.9320  -77.1660   -8.0830 O         1 <0>         0.0000
  22448 WAT       -34.9320  -77.1660   -7.8330 O         1 <0>         0.0000
  22449 WAT       -34.9320  -77.1660   -7.5830 O         1 <0>         0.0000
  22450 WAT       -34.9320  -77.1660   -7.3330 O         1 <0>         0.0000
  22451 WAT       -34.9320  -77.1660   -7.0830 O         1 <0>         0.0000
  22452 WAT       -34.9320  -77.1660   -6.8330 O         1 <0>         0.0000
  22453 WAT       -34.9320  -77.1660   -6.5830 O         1 <0>         0.0000
  22454 WAT       -34.9320  -77.1660   -6.3330 O         1 <0>         0.0000
  22455 WAT       -34.9320  -77.1660   -6.0830 O         1 <0>         0.0000
  22456 WAT       -34.9320  -77.1660   -5.8330 O         1 <0>         0.0000
  22457 WAT       -34.9320  -77.1660   -5.5830 O         1 <0>         0.0000
  22458 WAT       -34.9320  -77.1660   -5.3330 O         1 <0>         0.0000
  22459 WAT       -34.9320  -77.1660   -5.0830 O         1 <0>         0.0000
  22460 WAT       -34.9320  -77.1660   -4.8330 O         1 <0>         0.0000
  22461 WAT       -34.9320  -77.1660   -4.5830 O         1 <0>         0.0000
  22462 WAT       -34.9320  -77.1660   -4.3330 O         1 <0>         0.0000
  22463 WAT       -34.9320  -77.1660   -4.0830 O         1 <0>         0.0000
  22464 WAT       -34.9320  -77.1660   -3.8330 O         1 <0>         0.0000
  22465 WAT       -34.9320  -77.1660   -3.5830 O         1 <0>         0.0000
  22466 WAT       -34.9320  -77.1660   -3.3330 O         1 <0>         0.0000
  22467 WAT       -34.9320  -77.1660   -3.0830 O         1 <0>         0.0000
  22468 WAT       -34.9320  -77.1660   -2.8330 O         1 <0>         0.0000
  22469 WAT       -34.9320  -77.1660   -2.5830 O         1 <0>         0.0000
  22470 WAT       -34.9320  -77.1660   -2.3330 O         1 <0>         0.0000
  22471 WAT       -34.9320  -77.1660   -2.0830 O         1 <0>         0.0000
  22472 WAT       -34.9320  -77.1660   -1.8330 O         1 <0>         0.0000
  22473 WAT       -34.9320  -77.1660   -1.5830 O         1 <0>         0.0000
  22474 WAT       -34.9320  -77.1660   -1.3330 O         1 <0>         0.0000
  22475 WAT       -34.9320  -77.1660   -1.0830 O         1 <0>         0.0000
  22476 WAT       -34.9320  -77.1660   -0.8330 O         1 <0>         0.0000
  22477 WAT       -34.9320  -77.1660   -0.5830 O         1 <0>         0.0000
  22478 WAT       -34.9320  -77.1660   -0.3330 O         1 <0>         0.0000
  22479 WAT       -34.9320  -77.1660   -0.0830 O         1 <0>         0.0000
  22480 WAT       -34.9320  -76.9160   -9.8330 O         1 <0>         0.0000
  22481 WAT       -34.9320  -76.9160   -9.5830 O         1 <0>         0.0000
  22482 WAT       -34.9320  -76.9160   -9.3330 O         1 <0>         0.0000
  22483 WAT       -34.9320  -76.9160   -9.0830 O         1 <0>         0.0000
  22484 WAT       -34.9320  -76.9160   -8.8330 O         1 <0>         0.0000
  22485 WAT       -34.9320  -76.9160   -8.5830 O         1 <0>         0.0000
  22486 WAT       -34.9320  -76.9160   -8.3330 O         1 <0>         0.0000
  22487 WAT       -34.9320  -76.9160   -8.0830 O         1 <0>         0.0000
  22488 WAT       -34.9320  -76.9160   -7.8330 O         1 <0>         0.0000
  22489 WAT       -34.9320  -76.9160   -7.5830 O         1 <0>         0.0000
  22490 WAT       -34.9320  -76.9160   -7.3330 O         1 <0>         0.0000
  22491 WAT       -34.9320  -76.9160   -7.0830 O         1 <0>         0.0000
  22492 WAT       -34.9320  -76.9160   -6.8330 O         1 <0>         0.0000
  22493 WAT       -34.9320  -76.9160   -6.5830 O         1 <0>         0.0000
  22494 WAT       -34.9320  -76.9160   -6.3330 O         1 <0>         0.0000
  22495 WAT       -34.9320  -76.9160   -6.0830 O         1 <0>         0.0000
  22496 WAT       -34.9320  -76.9160   -5.8330 O         1 <0>         0.0000
  22497 WAT       -34.9320  -76.9160   -5.5830 O         1 <0>         0.0000
  22498 WAT       -34.9320  -76.9160   -5.3330 O         1 <0>         0.0000
  22499 WAT       -34.9320  -76.9160   -5.0830 O         1 <0>         0.0000
  22500 WAT       -34.9320  -76.9160   -4.8330 O         1 <0>         0.0000
  22501 WAT       -34.9320  -76.9160   -4.5830 O         1 <0>         0.0000
  22502 WAT       -34.9320  -76.9160   -4.3330 O         1 <0>         0.0000
  22503 WAT       -34.9320  -76.9160   -4.0830 O         1 <0>         0.0000
  22504 WAT       -34.9320  -76.9160   -3.8330 O         1 <0>         0.0000
  22505 WAT       -34.9320  -76.9160   -3.5830 O         1 <0>         0.0000
  22506 WAT       -34.9320  -76.9160   -3.3330 O         1 <0>         0.0000
  22507 WAT       -34.9320  -76.9160   -3.0830 O         1 <0>         0.0000
  22508 WAT       -34.9320  -76.9160   -2.8330 O         1 <0>         0.0000
  22509 WAT       -34.9320  -76.9160   -2.5830 O         1 <0>         0.0000
  22510 WAT       -34.9320  -76.9160   -2.3330 O         1 <0>         0.0000
  22511 WAT       -34.9320  -76.9160   -2.0830 O         1 <0>         0.0000
  22512 WAT       -34.9320  -76.9160   -1.8330 O         1 <0>         0.0000
  22513 WAT       -34.9320  -76.9160   -1.5830 O         1 <0>         0.0000
  22514 WAT       -34.9320  -76.9160   -1.3330 O         1 <0>         0.0000
  22515 WAT       -34.9320  -76.9160   -1.0830 O         1 <0>         0.0000
  22516 WAT       -34.9320  -76.9160   -0.8330 O         1 <0>         0.0000
  22517 WAT       -34.9320  -76.9160   -0.5830 O         1 <0>         0.0000
  22518 WAT       -34.9320  -76.9160   -0.3330 O         1 <0>         0.0000
  22519 WAT       -34.9320  -76.9160   -0.0830 O         1 <0>         0.0000
  22520 WAT       -34.9320  -76.6660   -9.8330 O         1 <0>         0.0000
  22521 WAT       -34.9320  -76.6660   -9.5830 O         1 <0>         0.0000
  22522 WAT       -34.9320  -76.6660   -9.3330 O         1 <0>         0.0000
  22523 WAT       -34.9320  -76.6660   -9.0830 O         1 <0>         0.0000
  22524 WAT       -34.9320  -76.6660   -8.8330 O         1 <0>         0.0000
  22525 WAT       -34.9320  -76.6660   -8.5830 O         1 <0>         0.0000
  22526 WAT       -34.9320  -76.6660   -8.3330 O         1 <0>         0.0000
  22527 WAT       -34.9320  -76.6660   -8.0830 O         1 <0>         0.0000
  22528 WAT       -34.9320  -76.6660   -7.8330 O         1 <0>         0.0000
  22529 WAT       -34.9320  -76.6660   -7.5830 O         1 <0>         0.0000
  22530 WAT       -34.9320  -76.6660   -7.3330 O         1 <0>         0.0000
  22531 WAT       -34.9320  -76.6660   -7.0830 O         1 <0>         0.0000
  22532 WAT       -34.9320  -76.6660   -6.8330 O         1 <0>         0.0000
  22533 WAT       -34.9320  -76.6660   -6.5830 O         1 <0>         0.0000
  22534 WAT       -34.9320  -76.6660   -6.3330 O         1 <0>         0.0000
  22535 WAT       -34.9320  -76.6660   -6.0830 O         1 <0>         0.0000
  22536 WAT       -34.9320  -76.6660   -5.8330 O         1 <0>         0.0000
  22537 WAT       -34.9320  -76.6660   -5.5830 O         1 <0>         0.0000
  22538 WAT       -34.9320  -76.6660   -5.3330 O         1 <0>         0.0000
  22539 WAT       -34.9320  -76.6660   -5.0830 O         1 <0>         0.0000
  22540 WAT       -34.9320  -76.6660   -4.8330 O         1 <0>         0.0000
  22541 WAT       -34.9320  -76.6660   -4.5830 O         1 <0>         0.0000
  22542 WAT       -34.9320  -76.6660   -4.3330 O         1 <0>         0.0000
  22543 WAT       -34.9320  -76.6660   -4.0830 O         1 <0>         0.0000
  22544 WAT       -34.9320  -76.6660   -3.8330 O         1 <0>         0.0000
  22545 WAT       -34.9320  -76.6660   -3.5830 O         1 <0>         0.0000
  22546 WAT       -34.9320  -76.6660   -3.3330 O         1 <0>         0.0000
  22547 WAT       -34.9320  -76.6660   -3.0830 O         1 <0>         0.0000
  22548 WAT       -34.9320  -76.6660   -2.8330 O         1 <0>         0.0000
  22549 WAT       -34.9320  -76.6660   -2.5830 O         1 <0>         0.0000
  22550 WAT       -34.9320  -76.6660   -2.3330 O         1 <0>         0.0000
  22551 WAT       -34.9320  -76.6660   -2.0830 O         1 <0>         0.0000
  22552 WAT       -34.9320  -76.6660   -1.8330 O         1 <0>         0.0000
  22553 WAT       -34.9320  -76.6660   -1.5830 O         1 <0>         0.0000
  22554 WAT       -34.9320  -76.6660   -1.3330 O         1 <0>         0.0000
  22555 WAT       -34.9320  -76.6660   -1.0830 O         1 <0>         0.0000
  22556 WAT       -34.9320  -76.6660   -0.8330 O         1 <0>         0.0000
  22557 WAT       -34.9320  -76.6660   -0.5830 O         1 <0>         0.0000
  22558 WAT       -34.9320  -76.6660   -0.3330 O         1 <0>         0.0000
  22559 WAT       -34.9320  -76.6660   -0.0830 O         1 <0>         0.0000
  22560 WAT       -34.9320  -76.4160   -9.8330 O         1 <0>         0.0000
  22561 WAT       -34.9320  -76.4160   -9.5830 O         1 <0>         0.0000
  22562 WAT       -34.9320  -76.4160   -9.3330 O         1 <0>         0.0000
  22563 WAT       -34.9320  -76.4160   -9.0830 O         1 <0>         0.0000
  22564 WAT       -34.9320  -76.4160   -8.8330 O         1 <0>         0.0000
  22565 WAT       -34.9320  -76.4160   -8.5830 O         1 <0>         0.0000
  22566 WAT       -34.9320  -76.4160   -8.3330 O         1 <0>         0.0000
  22567 WAT       -34.9320  -76.4160   -8.0830 O         1 <0>         0.0000
  22568 WAT       -34.9320  -76.4160   -7.8330 O         1 <0>         0.0000
  22569 WAT       -34.9320  -76.4160   -7.5830 O         1 <0>         0.0000
  22570 WAT       -34.9320  -76.4160   -7.3330 O         1 <0>         0.0000
  22571 WAT       -34.9320  -76.4160   -7.0830 O         1 <0>         0.0000
  22572 WAT       -34.9320  -76.4160   -6.8330 O         1 <0>         0.0000
  22573 WAT       -34.9320  -76.4160   -6.5830 O         1 <0>         0.0000
  22574 WAT       -34.9320  -76.4160   -6.3330 O         1 <0>         0.0000
  22575 WAT       -34.9320  -76.4160   -6.0830 O         1 <0>         0.0000
  22576 WAT       -34.9320  -76.4160   -5.8330 O         1 <0>         0.0000
  22577 WAT       -34.9320  -76.4160   -5.5830 O         1 <0>         0.0000
  22578 WAT       -34.9320  -76.4160   -5.3330 O         1 <0>         0.0000
  22579 WAT       -34.9320  -76.4160   -5.0830 O         1 <0>         0.0000
  22580 WAT       -34.9320  -76.4160   -4.8330 O         1 <0>         0.0000
  22581 WAT       -34.9320  -76.4160   -4.5830 O         1 <0>         0.0000
  22582 WAT       -34.9320  -76.4160   -4.3330 O         1 <0>         0.0000
  22583 WAT       -34.9320  -76.4160   -4.0830 O         1 <0>         0.0000
  22584 WAT       -34.9320  -76.4160   -3.8330 O         1 <0>         0.0001
  22585 WAT       -34.9320  -76.4160   -3.5830 O         1 <0>         0.0003
  22586 WAT       -34.9320  -76.4160   -3.3330 O         1 <0>         0.0004
  22587 WAT       -34.9320  -76.4160   -3.0830 O         1 <0>         0.0004
  22588 WAT       -34.9320  -76.4160   -2.8330 O         1 <0>         0.0002
  22589 WAT       -34.9320  -76.4160   -2.5830 O         1 <0>         0.0001
  22590 WAT       -34.9320  -76.4160   -2.3330 O         1 <0>         0.0000
  22591 WAT       -34.9320  -76.4160   -2.0830 O         1 <0>         0.0000
  22592 WAT       -34.9320  -76.4160   -1.8330 O         1 <0>         0.0000
  22593 WAT       -34.9320  -76.4160   -1.5830 O         1 <0>         0.0000
  22594 WAT       -34.9320  -76.4160   -1.3330 O         1 <0>         0.0000
  22595 WAT       -34.9320  -76.4160   -1.0830 O         1 <0>         0.0000
  22596 WAT       -34.9320  -76.4160   -0.8330 O         1 <0>         0.0000
  22597 WAT       -34.9320  -76.4160   -0.5830 O         1 <0>         0.0000
  22598 WAT       -34.9320  -76.4160   -0.3330 O         1 <0>         0.0000
  22599 WAT       -34.9320  -76.4160   -0.0830 O         1 <0>         0.0000
  22600 WAT       -34.9320  -76.1660   -9.8330 O         1 <0>         0.0000
  22601 WAT       -34.9320  -76.1660   -9.5830 O         1 <0>         0.0000
  22602 WAT       -34.9320  -76.1660   -9.3330 O         1 <0>         0.0000
  22603 WAT       -34.9320  -76.1660   -9.0830 O         1 <0>         0.0000
  22604 WAT       -34.9320  -76.1660   -8.8330 O         1 <0>         0.0000
  22605 WAT       -34.9320  -76.1660   -8.5830 O         1 <0>         0.0000
  22606 WAT       -34.9320  -76.1660   -8.3330 O         1 <0>         0.0000
  22607 WAT       -34.9320  -76.1660   -8.0830 O         1 <0>         0.0000
  22608 WAT       -34.9320  -76.1660   -7.8330 O         1 <0>         0.0000
  22609 WAT       -34.9320  -76.1660   -7.5830 O         1 <0>         0.0000
  22610 WAT       -34.9320  -76.1660   -7.3330 O         1 <0>         0.0000
  22611 WAT       -34.9320  -76.1660   -7.0830 O         1 <0>         0.0000
  22612 WAT       -34.9320  -76.1660   -6.8330 O         1 <0>         0.0000
  22613 WAT       -34.9320  -76.1660   -6.5830 O         1 <0>         0.0000
  22614 WAT       -34.9320  -76.1660   -6.3330 O         1 <0>         0.0000
  22615 WAT       -34.9320  -76.1660   -6.0830 O         1 <0>         0.0000
  22616 WAT       -34.9320  -76.1660   -5.8330 O         1 <0>         0.0000
  22617 WAT       -34.9320  -76.1660   -5.5830 O         1 <0>         0.0000
  22618 WAT       -34.9320  -76.1660   -5.3330 O         1 <0>         0.0000
  22619 WAT       -34.9320  -76.1660   -5.0830 O         1 <0>         0.0000
  22620 WAT       -34.9320  -76.1660   -4.8330 O         1 <0>         0.0000
  22621 WAT       -34.9320  -76.1660   -4.5830 O         1 <0>         0.0000
  22622 WAT       -34.9320  -76.1660   -4.3330 O         1 <0>         0.0000
  22623 WAT       -34.9320  -76.1660   -4.0830 O         1 <0>         0.0002
  22624 WAT       -34.9320  -76.1660   -3.8330 O         1 <0>         0.0007
  22625 WAT       -34.9320  -76.1660   -3.5830 O         1 <0>         0.0017
  22626 WAT       -34.9320  -76.1660   -3.3330 O         1 <0>         0.0025
  22627 WAT       -34.9320  -76.1660   -3.0830 O         1 <0>         0.0024
  22628 WAT       -34.9320  -76.1660   -2.8330 O         1 <0>         0.0014
  22629 WAT       -34.9320  -76.1660   -2.5830 O         1 <0>         0.0005
  22630 WAT       -34.9320  -76.1660   -2.3330 O         1 <0>         0.0001
  22631 WAT       -34.9320  -76.1660   -2.0830 O         1 <0>         0.0000
  22632 WAT       -34.9320  -76.1660   -1.8330 O         1 <0>         0.0000
  22633 WAT       -34.9320  -76.1660   -1.5830 O         1 <0>         0.0000
  22634 WAT       -34.9320  -76.1660   -1.3330 O         1 <0>         0.0000
  22635 WAT       -34.9320  -76.1660   -1.0830 O         1 <0>         0.0000
  22636 WAT       -34.9320  -76.1660   -0.8330 O         1 <0>         0.0000
  22637 WAT       -34.9320  -76.1660   -0.5830 O         1 <0>         0.0000
  22638 WAT       -34.9320  -76.1660   -0.3330 O         1 <0>         0.0000
  22639 WAT       -34.9320  -76.1660   -0.0830 O         1 <0>         0.0000
  22640 WAT       -34.9320  -75.9160   -9.8330 O         1 <0>         0.0000
  22641 WAT       -34.9320  -75.9160   -9.5830 O         1 <0>         0.0000
  22642 WAT       -34.9320  -75.9160   -9.3330 O         1 <0>         0.0000
  22643 WAT       -34.9320  -75.9160   -9.0830 O         1 <0>         0.0000
  22644 WAT       -34.9320  -75.9160   -8.8330 O         1 <0>         0.0000
  22645 WAT       -34.9320  -75.9160   -8.5830 O         1 <0>         0.0000
  22646 WAT       -34.9320  -75.9160   -8.3330 O         1 <0>         0.0000
  22647 WAT       -34.9320  -75.9160   -8.0830 O         1 <0>         0.0000
  22648 WAT       -34.9320  -75.9160   -7.8330 O         1 <0>         0.0000
  22649 WAT       -34.9320  -75.9160   -7.5830 O         1 <0>         0.0000
  22650 WAT       -34.9320  -75.9160   -7.3330 O         1 <0>         0.0000
  22651 WAT       -34.9320  -75.9160   -7.0830 O         1 <0>         0.0000
  22652 WAT       -34.9320  -75.9160   -6.8330 O         1 <0>         0.0000
  22653 WAT       -34.9320  -75.9160   -6.5830 O         1 <0>         0.0000
  22654 WAT       -34.9320  -75.9160   -6.3330 O         1 <0>         0.0000
  22655 WAT       -34.9320  -75.9160   -6.0830 O         1 <0>         0.0000
  22656 WAT       -34.9320  -75.9160   -5.8330 O         1 <0>         0.0000
  22657 WAT       -34.9320  -75.9160   -5.5830 O         1 <0>         0.0000
  22658 WAT       -34.9320  -75.9160   -5.3330 O         1 <0>         0.0000
  22659 WAT       -34.9320  -75.9160   -5.0830 O         1 <0>         0.0000
  22660 WAT       -34.9320  -75.9160   -4.8330 O         1 <0>         0.0000
  22661 WAT       -34.9320  -75.9160   -4.5830 O         1 <0>         0.0000
  22662 WAT       -34.9320  -75.9160   -4.3330 O         1 <0>         0.0001
  22663 WAT       -34.9320  -75.9160   -4.0830 O         1 <0>         0.0009
  22664 WAT       -34.9320  -75.9160   -3.8330 O         1 <0>         0.0031
  22665 WAT       -34.9320  -75.9160   -3.5830 O         1 <0>         0.0066
  22666 WAT       -34.9320  -75.9160   -3.3330 O         1 <0>         0.0091
  22667 WAT       -34.9320  -75.9160   -3.0830 O         1 <0>         0.0085
  22668 WAT       -34.9320  -75.9160   -2.8330 O         1 <0>         0.0052
  22669 WAT       -34.9320  -75.9160   -2.5830 O         1 <0>         0.0021
  22670 WAT       -34.9320  -75.9160   -2.3330 O         1 <0>         0.0005
  22671 WAT       -34.9320  -75.9160   -2.0830 O         1 <0>         0.0000
  22672 WAT       -34.9320  -75.9160   -1.8330 O         1 <0>         0.0000
  22673 WAT       -34.9320  -75.9160   -1.5830 O         1 <0>         0.0000
  22674 WAT       -34.9320  -75.9160   -1.3330 O         1 <0>         0.0000
  22675 WAT       -34.9320  -75.9160   -1.0830 O         1 <0>         0.0000
  22676 WAT       -34.9320  -75.9160   -0.8330 O         1 <0>         0.0000
  22677 WAT       -34.9320  -75.9160   -0.5830 O         1 <0>         0.0000
  22678 WAT       -34.9320  -75.9160   -0.3330 O         1 <0>         0.0000
  22679 WAT       -34.9320  -75.9160   -0.0830 O         1 <0>         0.0000
  22680 WAT       -34.9320  -75.6660   -9.8330 O         1 <0>         0.0000
  22681 WAT       -34.9320  -75.6660   -9.5830 O         1 <0>         0.0000
  22682 WAT       -34.9320  -75.6660   -9.3330 O         1 <0>         0.0000
  22683 WAT       -34.9320  -75.6660   -9.0830 O         1 <0>         0.0000
  22684 WAT       -34.9320  -75.6660   -8.8330 O         1 <0>         0.0000
  22685 WAT       -34.9320  -75.6660   -8.5830 O         1 <0>         0.0000
  22686 WAT       -34.9320  -75.6660   -8.3330 O         1 <0>         0.0000
  22687 WAT       -34.9320  -75.6660   -8.0830 O         1 <0>         0.0000
  22688 WAT       -34.9320  -75.6660   -7.8330 O         1 <0>         0.0000
  22689 WAT       -34.9320  -75.6660   -7.5830 O         1 <0>         0.0000
  22690 WAT       -34.9320  -75.6660   -7.3330 O         1 <0>         0.0000
  22691 WAT       -34.9320  -75.6660   -7.0830 O         1 <0>         0.0000
  22692 WAT       -34.9320  -75.6660   -6.8330 O         1 <0>         0.0000
  22693 WAT       -34.9320  -75.6660   -6.5830 O         1 <0>         0.0000
  22694 WAT       -34.9320  -75.6660   -6.3330 O         1 <0>         0.0000
  22695 WAT       -34.9320  -75.6660   -6.0830 O         1 <0>         0.0000
  22696 WAT       -34.9320  -75.6660   -5.8330 O         1 <0>         0.0000
  22697 WAT       -34.9320  -75.6660   -5.5830 O         1 <0>         0.0000
  22698 WAT       -34.9320  -75.6660   -5.3330 O         1 <0>         0.0000
  22699 WAT       -34.9320  -75.6660   -5.0830 O         1 <0>         0.0000
  22700 WAT       -34.9320  -75.6660   -4.8330 O         1 <0>         0.0000
  22701 WAT       -34.9320  -75.6660   -4.5830 O         1 <0>         0.0001
  22702 WAT       -34.9320  -75.6660   -4.3330 O         1 <0>         0.0007
  22703 WAT       -34.9320  -75.6660   -4.0830 O         1 <0>         0.0032
  22704 WAT       -34.9320  -75.6660   -3.8330 O         1 <0>         0.0092
  22705 WAT       -34.9320  -75.6660   -3.5830 O         1 <0>         0.0174
  22706 WAT       -34.9320  -75.6660   -3.3330 O         1 <0>         0.0228
  22707 WAT       -34.9320  -75.6660   -3.0830 O         1 <0>         0.0206
  22708 WAT       -34.9320  -75.6660   -2.8330 O         1 <0>         0.0126
  22709 WAT       -34.9320  -75.6660   -2.5830 O         1 <0>         0.0052
  22710 WAT       -34.9320  -75.6660   -2.3330 O         1 <0>         0.0013
  22711 WAT       -34.9320  -75.6660   -2.0830 O         1 <0>         0.0002
  22712 WAT       -34.9320  -75.6660   -1.8330 O         1 <0>         0.0000
  22713 WAT       -34.9320  -75.6660   -1.5830 O         1 <0>         0.0000
  22714 WAT       -34.9320  -75.6660   -1.3330 O         1 <0>         0.0000
  22715 WAT       -34.9320  -75.6660   -1.0830 O         1 <0>         0.0000
  22716 WAT       -34.9320  -75.6660   -0.8330 O         1 <0>         0.0000
  22717 WAT       -34.9320  -75.6660   -0.5830 O         1 <0>         0.0000
  22718 WAT       -34.9320  -75.6660   -0.3330 O         1 <0>         0.0000
  22719 WAT       -34.9320  -75.6660   -0.0830 O         1 <0>         0.0000
  22720 WAT       -34.9320  -75.4160   -9.8330 O         1 <0>         0.0000
  22721 WAT       -34.9320  -75.4160   -9.5830 O         1 <0>         0.0000
  22722 WAT       -34.9320  -75.4160   -9.3330 O         1 <0>         0.0000
  22723 WAT       -34.9320  -75.4160   -9.0830 O         1 <0>         0.0000
  22724 WAT       -34.9320  -75.4160   -8.8330 O         1 <0>         0.0000
  22725 WAT       -34.9320  -75.4160   -8.5830 O         1 <0>         0.0000
  22726 WAT       -34.9320  -75.4160   -8.3330 O         1 <0>         0.0000
  22727 WAT       -34.9320  -75.4160   -8.0830 O         1 <0>         0.0000
  22728 WAT       -34.9320  -75.4160   -7.8330 O         1 <0>         0.0000
  22729 WAT       -34.9320  -75.4160   -7.5830 O         1 <0>         0.0000
  22730 WAT       -34.9320  -75.4160   -7.3330 O         1 <0>         0.0000
  22731 WAT       -34.9320  -75.4160   -7.0830 O         1 <0>         0.0000
  22732 WAT       -34.9320  -75.4160   -6.8330 O         1 <0>         0.0000
  22733 WAT       -34.9320  -75.4160   -6.5830 O         1 <0>         0.0000
  22734 WAT       -34.9320  -75.4160   -6.3330 O         1 <0>         0.0000
  22735 WAT       -34.9320  -75.4160   -6.0830 O         1 <0>         0.0000
  22736 WAT       -34.9320  -75.4160   -5.8330 O         1 <0>         0.0000
  22737 WAT       -34.9320  -75.4160   -5.5830 O         1 <0>         0.0000
  22738 WAT       -34.9320  -75.4160   -5.3330 O         1 <0>         0.0000
  22739 WAT       -34.9320  -75.4160   -5.0830 O         1 <0>         0.0000
  22740 WAT       -34.9320  -75.4160   -4.8330 O         1 <0>         0.0001
  22741 WAT       -34.9320  -75.4160   -4.5830 O         1 <0>         0.0004
  22742 WAT       -34.9320  -75.4160   -4.3330 O         1 <0>         0.0022
  22743 WAT       -34.9320  -75.4160   -4.0830 O         1 <0>         0.0079
  22744 WAT       -34.9320  -75.4160   -3.8330 O         1 <0>         0.0198
  22745 WAT       -34.9320  -75.4160   -3.5830 O         1 <0>         0.0348
  22746 WAT       -34.9320  -75.4160   -3.3330 O         1 <0>         0.0428
  22747 WAT       -34.9320  -75.4160   -3.0830 O         1 <0>         0.0369
  22748 WAT       -34.9320  -75.4160   -2.8330 O         1 <0>         0.0222
  22749 WAT       -34.9320  -75.4160   -2.5830 O         1 <0>         0.0091
  22750 WAT       -34.9320  -75.4160   -2.3330 O         1 <0>         0.0023
  22751 WAT       -34.9320  -75.4160   -2.0830 O         1 <0>         0.0003
  22752 WAT       -34.9320  -75.4160   -1.8330 O         1 <0>         0.0000
  22753 WAT       -34.9320  -75.4160   -1.5830 O         1 <0>         0.0000
  22754 WAT       -34.9320  -75.4160   -1.3330 O         1 <0>         0.0000
  22755 WAT       -34.9320  -75.4160   -1.0830 O         1 <0>         0.0000
  22756 WAT       -34.9320  -75.4160   -0.8330 O         1 <0>         0.0000
  22757 WAT       -34.9320  -75.4160   -0.5830 O         1 <0>         0.0000
  22758 WAT       -34.9320  -75.4160   -0.3330 O         1 <0>         0.0000
  22759 WAT       -34.9320  -75.4160   -0.0830 O         1 <0>         0.0000
  22760 WAT       -34.9320  -75.1660   -9.8330 O         1 <0>         0.0000
  22761 WAT       -34.9320  -75.1660   -9.5830 O         1 <0>         0.0000
  22762 WAT       -34.9320  -75.1660   -9.3330 O         1 <0>         0.0000
  22763 WAT       -34.9320  -75.1660   -9.0830 O         1 <0>         0.0000
  22764 WAT       -34.9320  -75.1660   -8.8330 O         1 <0>         0.0000
  22765 WAT       -34.9320  -75.1660   -8.5830 O         1 <0>         0.0000
  22766 WAT       -34.9320  -75.1660   -8.3330 O         1 <0>         0.0000
  22767 WAT       -34.9320  -75.1660   -8.0830 O         1 <0>         0.0000
  22768 WAT       -34.9320  -75.1660   -7.8330 O         1 <0>         0.0000
  22769 WAT       -34.9320  -75.1660   -7.5830 O         1 <0>         0.0000
  22770 WAT       -34.9320  -75.1660   -7.3330 O         1 <0>         0.0000
  22771 WAT       -34.9320  -75.1660   -7.0830 O         1 <0>         0.0000
  22772 WAT       -34.9320  -75.1660   -6.8330 O         1 <0>         0.0000
  22773 WAT       -34.9320  -75.1660   -6.5830 O         1 <0>         0.0002
  22774 WAT       -34.9320  -75.1660   -6.3330 O         1 <0>         0.0003
  22775 WAT       -34.9320  -75.1660   -6.0830 O         1 <0>         0.0005
  22776 WAT       -34.9320  -75.1660   -5.8330 O         1 <0>         0.0004
  22777 WAT       -34.9320  -75.1660   -5.5830 O         1 <0>         0.0003
  22778 WAT       -34.9320  -75.1660   -5.3330 O         1 <0>         0.0001
  22779 WAT       -34.9320  -75.1660   -5.0830 O         1 <0>         0.0001
  22780 WAT       -34.9320  -75.1660   -4.8330 O         1 <0>         0.0004
  22781 WAT       -34.9320  -75.1660   -4.5830 O         1 <0>         0.0013
  22782 WAT       -34.9320  -75.1660   -4.3330 O         1 <0>         0.0049
  22783 WAT       -34.9320  -75.1660   -4.0830 O         1 <0>         0.0148
  22784 WAT       -34.9320  -75.1660   -3.8330 O         1 <0>         0.0337
  22785 WAT       -34.9320  -75.1660   -3.5830 O         1 <0>         0.0554
  22786 WAT       -34.9320  -75.1660   -3.3330 O         1 <0>         0.0647
  22787 WAT       -34.9320  -75.1660   -3.0830 O         1 <0>         0.0537
  22788 WAT       -34.9320  -75.1660   -2.8330 O         1 <0>         0.0313
  22789 WAT       -34.9320  -75.1660   -2.5830 O         1 <0>         0.0126
  22790 WAT       -34.9320  -75.1660   -2.3330 O         1 <0>         0.0032
  22791 WAT       -34.9320  -75.1660   -2.0830 O         1 <0>         0.0004
  22792 WAT       -34.9320  -75.1660   -1.8330 O         1 <0>         0.0000
  22793 WAT       -34.9320  -75.1660   -1.5830 O         1 <0>         0.0000
  22794 WAT       -34.9320  -75.1660   -1.3330 O         1 <0>         0.0000
  22795 WAT       -34.9320  -75.1660   -1.0830 O         1 <0>         0.0000
  22796 WAT       -34.9320  -75.1660   -0.8330 O         1 <0>         0.0000
  22797 WAT       -34.9320  -75.1660   -0.5830 O         1 <0>         0.0000
  22798 WAT       -34.9320  -75.1660   -0.3330 O         1 <0>         0.0000
  22799 WAT       -34.9320  -75.1660   -0.0830 O         1 <0>         0.0000
  22800 WAT       -34.9320  -74.9160   -9.8330 O         1 <0>         0.0000
  22801 WAT       -34.9320  -74.9160   -9.5830 O         1 <0>         0.0000
  22802 WAT       -34.9320  -74.9160   -9.3330 O         1 <0>         0.0000
  22803 WAT       -34.9320  -74.9160   -9.0830 O         1 <0>         0.0000
  22804 WAT       -34.9320  -74.9160   -8.8330 O         1 <0>         0.0000
  22805 WAT       -34.9320  -74.9160   -8.5830 O         1 <0>         0.0000
  22806 WAT       -34.9320  -74.9160   -8.3330 O         1 <0>         0.0000
  22807 WAT       -34.9320  -74.9160   -8.0830 O         1 <0>         0.0000
  22808 WAT       -34.9320  -74.9160   -7.8330 O         1 <0>         0.0000
  22809 WAT       -34.9320  -74.9160   -7.5830 O         1 <0>         0.0000
  22810 WAT       -34.9320  -74.9160   -7.3330 O         1 <0>         0.0000
  22811 WAT       -34.9320  -74.9160   -7.0830 O         1 <0>         0.0001
  22812 WAT       -34.9320  -74.9160   -6.8330 O         1 <0>         0.0003
  22813 WAT       -34.9320  -74.9160   -6.5830 O         1 <0>         0.0011
  22814 WAT       -34.9320  -74.9160   -6.3330 O         1 <0>         0.0023
  22815 WAT       -34.9320  -74.9160   -6.0830 O         1 <0>         0.0030
  22816 WAT       -34.9320  -74.9160   -5.8330 O         1 <0>         0.0028
  22817 WAT       -34.9320  -74.9160   -5.5830 O         1 <0>         0.0019
  22818 WAT       -34.9320  -74.9160   -5.3330 O         1 <0>         0.0011
  22819 WAT       -34.9320  -74.9160   -5.0830 O         1 <0>         0.0010
  22820 WAT       -34.9320  -74.9160   -4.8330 O         1 <0>         0.0014
  22821 WAT       -34.9320  -74.9160   -4.5830 O         1 <0>         0.0030
  22822 WAT       -34.9320  -74.9160   -4.3330 O         1 <0>         0.0082
  22823 WAT       -34.9320  -74.9160   -4.0830 O         1 <0>         0.0217
  22824 WAT       -34.9320  -74.9160   -3.8330 O         1 <0>         0.0466
  22825 WAT       -34.9320  -74.9160   -3.5830 O         1 <0>         0.0742
  22826 WAT       -34.9320  -74.9160   -3.3330 O         1 <0>         0.0848
  22827 WAT       -34.9320  -74.9160   -3.0830 O         1 <0>         0.0689
  22828 WAT       -34.9320  -74.9160   -2.8330 O         1 <0>         0.0396
  22829 WAT       -34.9320  -74.9160   -2.5830 O         1 <0>         0.0156
  22830 WAT       -34.9320  -74.9160   -2.3330 O         1 <0>         0.0040
  22831 WAT       -34.9320  -74.9160   -2.0830 O         1 <0>         0.0006
  22832 WAT       -34.9320  -74.9160   -1.8330 O         1 <0>         0.0000
  22833 WAT       -34.9320  -74.9160   -1.5830 O         1 <0>         0.0000
  22834 WAT       -34.9320  -74.9160   -1.3330 O         1 <0>         0.0000
  22835 WAT       -34.9320  -74.9160   -1.0830 O         1 <0>         0.0000
  22836 WAT       -34.9320  -74.9160   -0.8330 O         1 <0>         0.0000
  22837 WAT       -34.9320  -74.9160   -0.5830 O         1 <0>         0.0000
  22838 WAT       -34.9320  -74.9160   -0.3330 O         1 <0>         0.0000
  22839 WAT       -34.9320  -74.9160   -0.0830 O         1 <0>         0.0000
  22840 WAT       -34.9320  -74.6660   -9.8330 O         1 <0>         0.0000
  22841 WAT       -34.9320  -74.6660   -9.5830 O         1 <0>         0.0000
  22842 WAT       -34.9320  -74.6660   -9.3330 O         1 <0>         0.0000
  22843 WAT       -34.9320  -74.6660   -9.0830 O         1 <0>         0.0000
  22844 WAT       -34.9320  -74.6660   -8.8330 O         1 <0>         0.0000
  22845 WAT       -34.9320  -74.6660   -8.5830 O         1 <0>         0.0000
  22846 WAT       -34.9320  -74.6660   -8.3330 O         1 <0>         0.0000
  22847 WAT       -34.9320  -74.6660   -8.0830 O         1 <0>         0.0000
  22848 WAT       -34.9320  -74.6660   -7.8330 O         1 <0>         0.0000
  22849 WAT       -34.9320  -74.6660   -7.5830 O         1 <0>         0.0000
  22850 WAT       -34.9320  -74.6660   -7.3330 O         1 <0>         0.0000
  22851 WAT       -34.9320  -74.6660   -7.0830 O         1 <0>         0.0002
  22852 WAT       -34.9320  -74.6660   -6.8330 O         1 <0>         0.0012
  22853 WAT       -34.9320  -74.6660   -6.5830 O         1 <0>         0.0038
  22854 WAT       -34.9320  -74.6660   -6.3330 O         1 <0>         0.0076
  22855 WAT       -34.9320  -74.6660   -6.0830 O         1 <0>         0.0103
  22856 WAT       -34.9320  -74.6660   -5.8330 O         1 <0>         0.0099
  22857 WAT       -34.9320  -74.6660   -5.5830 O         1 <0>         0.0073
  22858 WAT       -34.9320  -74.6660   -5.3330 O         1 <0>         0.0051
  22859 WAT       -34.9320  -74.6660   -5.0830 O         1 <0>         0.0045
  22860 WAT       -34.9320  -74.6660   -4.8330 O         1 <0>         0.0049
  22861 WAT       -34.9320  -74.6660   -4.5830 O         1 <0>         0.0066
  22862 WAT       -34.9320  -74.6660   -4.3330 O         1 <0>         0.0121
  22863 WAT       -34.9320  -74.6660   -4.0830 O         1 <0>         0.0270
  22864 WAT       -34.9320  -74.6660   -3.8330 O         1 <0>         0.0550
  22865 WAT       -34.9320  -74.6660   -3.5830 O         1 <0>         0.0869
  22866 WAT       -34.9320  -74.6660   -3.3330 O         1 <0>         0.0997
  22867 WAT       -34.9320  -74.6660   -3.0830 O         1 <0>         0.0813
  22868 WAT       -34.9320  -74.6660   -2.8330 O         1 <0>         0.0466
  22869 WAT       -34.9320  -74.6660   -2.5830 O         1 <0>         0.0184
  22870 WAT       -34.9320  -74.6660   -2.3330 O         1 <0>         0.0048
  22871 WAT       -34.9320  -74.6660   -2.0830 O         1 <0>         0.0007
  22872 WAT       -34.9320  -74.6660   -1.8330 O         1 <0>         0.0001
  22873 WAT       -34.9320  -74.6660   -1.5830 O         1 <0>         0.0000
  22874 WAT       -34.9320  -74.6660   -1.3330 O         1 <0>         0.0000
  22875 WAT       -34.9320  -74.6660   -1.0830 O         1 <0>         0.0000
  22876 WAT       -34.9320  -74.6660   -0.8330 O         1 <0>         0.0000
  22877 WAT       -34.9320  -74.6660   -0.5830 O         1 <0>         0.0000
  22878 WAT       -34.9320  -74.6660   -0.3330 O         1 <0>         0.0000
  22879 WAT       -34.9320  -74.6660   -0.0830 O         1 <0>         0.0000
  22880 WAT       -34.9320  -74.4160   -9.8330 O         1 <0>         0.0000
  22881 WAT       -34.9320  -74.4160   -9.5830 O         1 <0>         0.0000
  22882 WAT       -34.9320  -74.4160   -9.3330 O         1 <0>         0.0000
  22883 WAT       -34.9320  -74.4160   -9.0830 O         1 <0>         0.0000
  22884 WAT       -34.9320  -74.4160   -8.8330 O         1 <0>         0.0000
  22885 WAT       -34.9320  -74.4160   -8.5830 O         1 <0>         0.0000
  22886 WAT       -34.9320  -74.4160   -8.3330 O         1 <0>         0.0000
  22887 WAT       -34.9320  -74.4160   -8.0830 O         1 <0>         0.0000
  22888 WAT       -34.9320  -74.4160   -7.8330 O         1 <0>         0.0000
  22889 WAT       -34.9320  -74.4160   -7.5830 O         1 <0>         0.0000
  22890 WAT       -34.9320  -74.4160   -7.3330 O         1 <0>         0.0001
  22891 WAT       -34.9320  -74.4160   -7.0830 O         1 <0>         0.0006
  22892 WAT       -34.9320  -74.4160   -6.8330 O         1 <0>         0.0028
  22893 WAT       -34.9320  -74.4160   -6.5830 O         1 <0>         0.0082
  22894 WAT       -34.9320  -74.4160   -6.3330 O         1 <0>         0.0159
  22895 WAT       -34.9320  -74.4160   -6.0830 O         1 <0>         0.0218
  22896 WAT       -34.9320  -74.4160   -5.8330 O         1 <0>         0.0218
  22897 WAT       -34.9320  -74.4160   -5.5830 O         1 <0>         0.0174
  22898 WAT       -34.9320  -74.4160   -5.3330 O         1 <0>         0.0139
  22899 WAT       -34.9320  -74.4160   -5.0830 O         1 <0>         0.0137
  22900 WAT       -34.9320  -74.4160   -4.8330 O         1 <0>         0.0149
  22901 WAT       -34.9320  -74.4160   -4.5830 O         1 <0>         0.0160
  22902 WAT       -34.9320  -74.4160   -4.3330 O         1 <0>         0.0193
  22903 WAT       -34.9320  -74.4160   -4.0830 O         1 <0>         0.0316
  22904 WAT       -34.9320  -74.4160   -3.8330 O         1 <0>         0.0583
  22905 WAT       -34.9320  -74.4160   -3.5830 O         1 <0>         0.0906
  22906 WAT       -34.9320  -74.4160   -3.3330 O         1 <0>         0.1045
  22907 WAT       -34.9320  -74.4160   -3.0830 O         1 <0>         0.0860
  22908 WAT       -34.9320  -74.4160   -2.8330 O         1 <0>         0.0497
  22909 WAT       -34.9320  -74.4160   -2.5830 O         1 <0>         0.0198
  22910 WAT       -34.9320  -74.4160   -2.3330 O         1 <0>         0.0053
  22911 WAT       -34.9320  -74.4160   -2.0830 O         1 <0>         0.0010
  22912 WAT       -34.9320  -74.4160   -1.8330 O         1 <0>         0.0001
  22913 WAT       -34.9320  -74.4160   -1.5830 O         1 <0>         0.0000
  22914 WAT       -34.9320  -74.4160   -1.3330 O         1 <0>         0.0000
  22915 WAT       -34.9320  -74.4160   -1.0830 O         1 <0>         0.0000
  22916 WAT       -34.9320  -74.4160   -0.8330 O         1 <0>         0.0000
  22917 WAT       -34.9320  -74.4160   -0.5830 O         1 <0>         0.0000
  22918 WAT       -34.9320  -74.4160   -0.3330 O         1 <0>         0.0000
  22919 WAT       -34.9320  -74.4160   -0.0830 O         1 <0>         0.0000
  22920 WAT       -34.9320  -74.1660   -9.8330 O         1 <0>         0.0000
  22921 WAT       -34.9320  -74.1660   -9.5830 O         1 <0>         0.0000
  22922 WAT       -34.9320  -74.1660   -9.3330 O         1 <0>         0.0000
  22923 WAT       -34.9320  -74.1660   -9.0830 O         1 <0>         0.0000
  22924 WAT       -34.9320  -74.1660   -8.8330 O         1 <0>         0.0000
  22925 WAT       -34.9320  -74.1660   -8.5830 O         1 <0>         0.0000
  22926 WAT       -34.9320  -74.1660   -8.3330 O         1 <0>         0.0000
  22927 WAT       -34.9320  -74.1660   -8.0830 O         1 <0>         0.0000
  22928 WAT       -34.9320  -74.1660   -7.8330 O         1 <0>         0.0000
  22929 WAT       -34.9320  -74.1660   -7.5830 O         1 <0>         0.0000
  22930 WAT       -34.9320  -74.1660   -7.3330 O         1 <0>         0.0002
  22931 WAT       -34.9320  -74.1660   -7.0830 O         1 <0>         0.0012
  22932 WAT       -34.9320  -74.1660   -6.8330 O         1 <0>         0.0044
  22933 WAT       -34.9320  -74.1660   -6.5830 O         1 <0>         0.0118
  22934 WAT       -34.9320  -74.1660   -6.3330 O         1 <0>         0.0224
  22935 WAT       -34.9320  -74.1660   -6.0830 O         1 <0>         0.0309
  22936 WAT       -34.9320  -74.1660   -5.8330 O         1 <0>         0.0320
  22937 WAT       -34.9320  -74.1660   -5.5830 O         1 <0>         0.0283
  22938 WAT       -34.9320  -74.1660   -5.3330 O         1 <0>         0.0273
  22939 WAT       -34.9320  -74.1660   -5.0830 O         1 <0>         0.0315
  22940 WAT       -34.9320  -74.1660   -4.8330 O         1 <0>         0.0362
  22941 WAT       -34.9320  -74.1660   -4.5830 O         1 <0>         0.0366
  22942 WAT       -34.9320  -74.1660   -4.3330 O         1 <0>         0.0344
  22943 WAT       -34.9320  -74.1660   -4.0830 O         1 <0>         0.0388
  22944 WAT       -34.9320  -74.1660   -3.8330 O         1 <0>         0.0572
  22945 WAT       -34.9320  -74.1660   -3.5830 O         1 <0>         0.0831
  22946 WAT       -34.9320  -74.1660   -3.3330 O         1 <0>         0.0946
  22947 WAT       -34.9320  -74.1660   -3.0830 O         1 <0>         0.0779
  22948 WAT       -34.9320  -74.1660   -2.8330 O         1 <0>         0.0453
  22949 WAT       -34.9320  -74.1660   -2.5830 O         1 <0>         0.0185
  22950 WAT       -34.9320  -74.1660   -2.3330 O         1 <0>         0.0054
  22951 WAT       -34.9320  -74.1660   -2.0830 O         1 <0>         0.0013
  22952 WAT       -34.9320  -74.1660   -1.8330 O         1 <0>         0.0003
  22953 WAT       -34.9320  -74.1660   -1.5830 O         1 <0>         0.0001
  22954 WAT       -34.9320  -74.1660   -1.3330 O         1 <0>         0.0000
  22955 WAT       -34.9320  -74.1660   -1.0830 O         1 <0>         0.0000
  22956 WAT       -34.9320  -74.1660   -0.8330 O         1 <0>         0.0000
  22957 WAT       -34.9320  -74.1660   -0.5830 O         1 <0>         0.0000
  22958 WAT       -34.9320  -74.1660   -0.3330 O         1 <0>         0.0000
  22959 WAT       -34.9320  -74.1660   -0.0830 O         1 <0>         0.0000
  22960 WAT       -34.9320  -73.9160   -9.8330 O         1 <0>         0.0000
  22961 WAT       -34.9320  -73.9160   -9.5830 O         1 <0>         0.0000
  22962 WAT       -34.9320  -73.9160   -9.3330 O         1 <0>         0.0000
  22963 WAT       -34.9320  -73.9160   -9.0830 O         1 <0>         0.0000
  22964 WAT       -34.9320  -73.9160   -8.8330 O         1 <0>         0.0000
  22965 WAT       -34.9320  -73.9160   -8.5830 O         1 <0>         0.0000
  22966 WAT       -34.9320  -73.9160   -8.3330 O         1 <0>         0.0000
  22967 WAT       -34.9320  -73.9160   -8.0830 O         1 <0>         0.0000
  22968 WAT       -34.9320  -73.9160   -7.8330 O         1 <0>         0.0001
  22969 WAT       -34.9320  -73.9160   -7.5830 O         1 <0>         0.0003
  22970 WAT       -34.9320  -73.9160   -7.3330 O         1 <0>         0.0010
  22971 WAT       -34.9320  -73.9160   -7.0830 O         1 <0>         0.0027
  22972 WAT       -34.9320  -73.9160   -6.8330 O         1 <0>         0.0062
  22973 WAT       -34.9320  -73.9160   -6.5830 O         1 <0>         0.0128
  22974 WAT       -34.9320  -73.9160   -6.3330 O         1 <0>         0.0221
  22975 WAT       -34.9320  -73.9160   -6.0830 O         1 <0>         0.0298
  22976 WAT       -34.9320  -73.9160   -5.8330 O         1 <0>         0.0325
  22977 WAT       -34.9320  -73.9160   -5.5830 O         1 <0>         0.0334
  22978 WAT       -34.9320  -73.9160   -5.3330 O         1 <0>         0.0407
  22979 WAT       -34.9320  -73.9160   -5.0830 O         1 <0>         0.0557
  22980 WAT       -34.9320  -73.9160   -4.8330 O         1 <0>         0.0684
  22981 WAT       -34.9320  -73.9160   -4.5830 O         1 <0>         0.0685
  22982 WAT       -34.9320  -73.9160   -4.3330 O         1 <0>         0.0574
  22983 WAT       -34.9320  -73.9160   -4.0830 O         1 <0>         0.0485
  22984 WAT       -34.9320  -73.9160   -3.8330 O         1 <0>         0.0523
  22985 WAT       -34.9320  -73.9160   -3.5830 O         1 <0>         0.0655
  22986 WAT       -34.9320  -73.9160   -3.3330 O         1 <0>         0.0712
  22987 WAT       -34.9320  -73.9160   -3.0830 O         1 <0>         0.0579
  22988 WAT       -34.9320  -73.9160   -2.8330 O         1 <0>         0.0339
  22989 WAT       -34.9320  -73.9160   -2.5830 O         1 <0>         0.0145
  22990 WAT       -34.9320  -73.9160   -2.3330 O         1 <0>         0.0050
  22991 WAT       -34.9320  -73.9160   -2.0830 O         1 <0>         0.0019
  22992 WAT       -34.9320  -73.9160   -1.8330 O         1 <0>         0.0009
  22993 WAT       -34.9320  -73.9160   -1.5830 O         1 <0>         0.0004
  22994 WAT       -34.9320  -73.9160   -1.3330 O         1 <0>         0.0001
  22995 WAT       -34.9320  -73.9160   -1.0830 O         1 <0>         0.0000
  22996 WAT       -34.9320  -73.9160   -0.8330 O         1 <0>         0.0000
  22997 WAT       -34.9320  -73.9160   -0.5830 O         1 <0>         0.0000
  22998 WAT       -34.9320  -73.9160   -0.3330 O         1 <0>         0.0000
  22999 WAT       -34.9320  -73.9160   -0.0830 O         1 <0>         0.0000
  23000 WAT       -34.9320  -73.6660   -9.8330 O         1 <0>         0.0000
  23001 WAT       -34.9320  -73.6660   -9.5830 O         1 <0>         0.0000
  23002 WAT       -34.9320  -73.6660   -9.3330 O         1 <0>         0.0000
  23003 WAT       -34.9320  -73.6660   -9.0830 O         1 <0>         0.0000
  23004 WAT       -34.9320  -73.6660   -8.8330 O         1 <0>         0.0000
  23005 WAT       -34.9320  -73.6660   -8.5830 O         1 <0>         0.0000
  23006 WAT       -34.9320  -73.6660   -8.3330 O         1 <0>         0.0000
  23007 WAT       -34.9320  -73.6660   -8.0830 O         1 <0>         0.0000
  23008 WAT       -34.9320  -73.6660   -7.8330 O         1 <0>         0.0003
  23009 WAT       -34.9320  -73.6660   -7.5830 O         1 <0>         0.0016
  23010 WAT       -34.9320  -73.6660   -7.3330 O         1 <0>         0.0042
  23011 WAT       -34.9320  -73.6660   -7.0830 O         1 <0>         0.0077
  23012 WAT       -34.9320  -73.6660   -6.8330 O         1 <0>         0.0108
  23013 WAT       -34.9320  -73.6660   -6.5830 O         1 <0>         0.0137
  23014 WAT       -34.9320  -73.6660   -6.3330 O         1 <0>         0.0174
  23015 WAT       -34.9320  -73.6660   -6.0830 O         1 <0>         0.0209
  23016 WAT       -34.9320  -73.6660   -5.8330 O         1 <0>         0.0238
  23017 WAT       -34.9320  -73.6660   -5.5830 O         1 <0>         0.0303
  23018 WAT       -34.9320  -73.6660   -5.3330 O         1 <0>         0.0479
  23019 WAT       -34.9320  -73.6660   -5.0830 O         1 <0>         0.0759
  23020 WAT       -34.9320  -73.6660   -4.8330 O         1 <0>         0.0988
  23021 WAT       -34.9320  -73.6660   -4.5830 O         1 <0>         0.0993
  23022 WAT       -34.9320  -73.6660   -4.3330 O         1 <0>         0.0788
  23023 WAT       -34.9320  -73.6660   -4.0830 O         1 <0>         0.0554
  23024 WAT       -34.9320  -73.6660   -3.8330 O         1 <0>         0.0438
  23025 WAT       -34.9320  -73.6660   -3.5830 O         1 <0>         0.0436
  23026 WAT       -34.9320  -73.6660   -3.3330 O         1 <0>         0.0433
  23027 WAT       -34.9320  -73.6660   -3.0830 O         1 <0>         0.0342
  23028 WAT       -34.9320  -73.6660   -2.8330 O         1 <0>         0.0201
  23029 WAT       -34.9320  -73.6660   -2.5830 O         1 <0>         0.0093
  23030 WAT       -34.9320  -73.6660   -2.3330 O         1 <0>         0.0043
  23031 WAT       -34.9320  -73.6660   -2.0830 O         1 <0>         0.0027
  23032 WAT       -34.9320  -73.6660   -1.8330 O         1 <0>         0.0018
  23033 WAT       -34.9320  -73.6660   -1.5830 O         1 <0>         0.0009
  23034 WAT       -34.9320  -73.6660   -1.3330 O         1 <0>         0.0003
  23035 WAT       -34.9320  -73.6660   -1.0830 O         1 <0>         0.0001
  23036 WAT       -34.9320  -73.6660   -0.8330 O         1 <0>         0.0000
  23037 WAT       -34.9320  -73.6660   -0.5830 O         1 <0>         0.0000
  23038 WAT       -34.9320  -73.6660   -0.3330 O         1 <0>         0.0000
  23039 WAT       -34.9320  -73.6660   -0.0830 O         1 <0>         0.0000
  23040 WAT       -34.9320  -73.4160   -9.8330 O         1 <0>         0.0000
  23041 WAT       -34.9320  -73.4160   -9.5830 O         1 <0>         0.0000
  23042 WAT       -34.9320  -73.4160   -9.3330 O         1 <0>         0.0000
  23043 WAT       -34.9320  -73.4160   -9.0830 O         1 <0>         0.0000
  23044 WAT       -34.9320  -73.4160   -8.8330 O         1 <0>         0.0000
  23045 WAT       -34.9320  -73.4160   -8.5830 O         1 <0>         0.0000
  23046 WAT       -34.9320  -73.4160   -8.3330 O         1 <0>         0.0000
  23047 WAT       -34.9320  -73.4160   -8.0830 O         1 <0>         0.0002
  23048 WAT       -34.9320  -73.4160   -7.8330 O         1 <0>         0.0015
  23049 WAT       -34.9320  -73.4160   -7.5830 O         1 <0>         0.0061
  23050 WAT       -34.9320  -73.4160   -7.3330 O         1 <0>         0.0141
  23051 WAT       -34.9320  -73.4160   -7.0830 O         1 <0>         0.0217
  23052 WAT       -34.9320  -73.4160   -6.8330 O         1 <0>         0.0238
  23053 WAT       -34.9320  -73.4160   -6.5830 O         1 <0>         0.0201
  23054 WAT       -34.9320  -73.4160   -6.3330 O         1 <0>         0.0151
  23055 WAT       -34.9320  -73.4160   -6.0830 O         1 <0>         0.0124
  23056 WAT       -34.9320  -73.4160   -5.8330 O         1 <0>         0.0136
  23057 WAT       -34.9320  -73.4160   -5.5830 O         1 <0>         0.0222
  23058 WAT       -34.9320  -73.4160   -5.3330 O         1 <0>         0.0443
  23059 WAT       -34.9320  -73.4160   -5.0830 O         1 <0>         0.0781
  23060 WAT       -34.9320  -73.4160   -4.8330 O         1 <0>         0.1063
  23061 WAT       -34.9320  -73.4160   -4.5830 O         1 <0>         0.1080
  23062 WAT       -34.9320  -73.4160   -4.3330 O         1 <0>         0.0833
  23063 WAT       -34.9320  -73.4160   -4.0830 O         1 <0>         0.0524
  23064 WAT       -34.9320  -73.4160   -3.8330 O         1 <0>         0.0322
  23065 WAT       -34.9320  -73.4160   -3.5830 O         1 <0>         0.0241
  23066 WAT       -34.9320  -73.4160   -3.3330 O         1 <0>         0.0207
  23067 WAT       -34.9320  -73.4160   -3.0830 O         1 <0>         0.0156
  23068 WAT       -34.9320  -73.4160   -2.8330 O         1 <0>         0.0092
  23069 WAT       -34.9320  -73.4160   -2.5830 O         1 <0>         0.0050
  23070 WAT       -34.9320  -73.4160   -2.3330 O         1 <0>         0.0037
  23071 WAT       -34.9320  -73.4160   -2.0830 O         1 <0>         0.0034
  23072 WAT       -34.9320  -73.4160   -1.8330 O         1 <0>         0.0026
  23073 WAT       -34.9320  -73.4160   -1.5830 O         1 <0>         0.0014
  23074 WAT       -34.9320  -73.4160   -1.3330 O         1 <0>         0.0005
  23075 WAT       -34.9320  -73.4160   -1.0830 O         1 <0>         0.0001
  23076 WAT       -34.9320  -73.4160   -0.8330 O         1 <0>         0.0000
  23077 WAT       -34.9320  -73.4160   -0.5830 O         1 <0>         0.0000
  23078 WAT       -34.9320  -73.4160   -0.3330 O         1 <0>         0.0000
  23079 WAT       -34.9320  -73.4160   -0.0830 O         1 <0>         0.0000
  23080 WAT       -34.9320  -73.1660   -9.8330 O         1 <0>         0.0000
  23081 WAT       -34.9320  -73.1660   -9.5830 O         1 <0>         0.0000
  23082 WAT       -34.9320  -73.1660   -9.3330 O         1 <0>         0.0000
  23083 WAT       -34.9320  -73.1660   -9.0830 O         1 <0>         0.0000
  23084 WAT       -34.9320  -73.1660   -8.8330 O         1 <0>         0.0000
  23085 WAT       -34.9320  -73.1660   -8.5830 O         1 <0>         0.0000
  23086 WAT       -34.9320  -73.1660   -8.3330 O         1 <0>         0.0000
  23087 WAT       -34.9320  -73.1660   -8.0830 O         1 <0>         0.0008
  23088 WAT       -34.9320  -73.1660   -7.8330 O         1 <0>         0.0058
  23089 WAT       -34.9320  -73.1660   -7.5830 O         1 <0>         0.0195
  23090 WAT       -34.9320  -73.1660   -7.3330 O         1 <0>         0.0402
  23091 WAT       -34.9320  -73.1660   -7.0830 O         1 <0>         0.0547
  23092 WAT       -34.9320  -73.1660   -6.8330 O         1 <0>         0.0519
  23093 WAT       -34.9320  -73.1660   -6.5830 O         1 <0>         0.0357
  23094 WAT       -34.9320  -73.1660   -6.3330 O         1 <0>         0.0188
  23095 WAT       -34.9320  -73.1660   -6.0830 O         1 <0>         0.0089
  23096 WAT       -34.9320  -73.1660   -5.8330 O         1 <0>         0.0068
  23097 WAT       -34.9320  -73.1660   -5.5830 O         1 <0>         0.0132
  23098 WAT       -34.9320  -73.1660   -5.3330 O         1 <0>         0.0311
  23099 WAT       -34.9320  -73.1660   -5.0830 O         1 <0>         0.0592
  23100 WAT       -34.9320  -73.1660   -4.8330 O         1 <0>         0.0834
  23101 WAT       -34.9320  -73.1660   -4.5830 O         1 <0>         0.0860
  23102 WAT       -34.9320  -73.1660   -4.3330 O         1 <0>         0.0655
  23103 WAT       -34.9320  -73.1660   -4.0830 O         1 <0>         0.0386
  23104 WAT       -34.9320  -73.1660   -3.8330 O         1 <0>         0.0197
  23105 WAT       -34.9320  -73.1660   -3.5830 O         1 <0>         0.0110
  23106 WAT       -34.9320  -73.1660   -3.3330 O         1 <0>         0.0076
  23107 WAT       -34.9320  -73.1660   -3.0830 O         1 <0>         0.0052
  23108 WAT       -34.9320  -73.1660   -2.8330 O         1 <0>         0.0032
  23109 WAT       -34.9320  -73.1660   -2.5830 O         1 <0>         0.0025
  23110 WAT       -34.9320  -73.1660   -2.3330 O         1 <0>         0.0029
  23111 WAT       -34.9320  -73.1660   -2.0830 O         1 <0>         0.0032
  23112 WAT       -34.9320  -73.1660   -1.8330 O         1 <0>         0.0026
  23113 WAT       -34.9320  -73.1660   -1.5830 O         1 <0>         0.0015
  23114 WAT       -34.9320  -73.1660   -1.3330 O         1 <0>         0.0006
  23115 WAT       -34.9320  -73.1660   -1.0830 O         1 <0>         0.0001
  23116 WAT       -34.9320  -73.1660   -0.8330 O         1 <0>         0.0000
  23117 WAT       -34.9320  -73.1660   -0.5830 O         1 <0>         0.0000
  23118 WAT       -34.9320  -73.1660   -0.3330 O         1 <0>         0.0000
  23119 WAT       -34.9320  -73.1660   -0.0830 O         1 <0>         0.0000
  23120 WAT       -34.9320  -72.9160   -9.8330 O         1 <0>         0.0000
  23121 WAT       -34.9320  -72.9160   -9.5830 O         1 <0>         0.0000
  23122 WAT       -34.9320  -72.9160   -9.3330 O         1 <0>         0.0000
  23123 WAT       -34.9320  -72.9160   -9.0830 O         1 <0>         0.0000
  23124 WAT       -34.9320  -72.9160   -8.8330 O         1 <0>         0.0000
  23125 WAT       -34.9320  -72.9160   -8.5830 O         1 <0>         0.0000
  23126 WAT       -34.9320  -72.9160   -8.3330 O         1 <0>         0.0002
  23127 WAT       -34.9320  -72.9160   -8.0830 O         1 <0>         0.0031
  23128 WAT       -34.9320  -72.9160   -7.8330 O         1 <0>         0.0177
  23129 WAT       -34.9320  -72.9160   -7.5830 O         1 <0>         0.0526
  23130 WAT       -34.9320  -72.9160   -7.3330 O         1 <0>         0.0974
  23131 WAT       -34.9320  -72.9160   -7.0830 O         1 <0>         0.1194
  23132 WAT       -34.9320  -72.9160   -6.8330 O         1 <0>         0.1008
  23133 WAT       -34.9320  -72.9160   -6.5830 O         1 <0>         0.0607
  23134 WAT       -34.9320  -72.9160   -6.3330 O         1 <0>         0.0268
  23135 WAT       -34.9320  -72.9160   -6.0830 O         1 <0>         0.0092
  23136 WAT       -34.9320  -72.9160   -5.8330 O         1 <0>         0.0037
  23137 WAT       -34.9320  -72.9160   -5.5830 O         1 <0>         0.0061
  23138 WAT       -34.9320  -72.9160   -5.3330 O         1 <0>         0.0160
  23139 WAT       -34.9320  -72.9160   -5.0830 O         1 <0>         0.0323
  23140 WAT       -34.9320  -72.9160   -4.8330 O         1 <0>         0.0471
  23141 WAT       -34.9320  -72.9160   -4.5830 O         1 <0>         0.0493
  23142 WAT       -34.9320  -72.9160   -4.3330 O         1 <0>         0.0373
  23143 WAT       -34.9320  -72.9160   -4.0830 O         1 <0>         0.0210
  23144 WAT       -34.9320  -72.9160   -3.8330 O         1 <0>         0.0095
  23145 WAT       -34.9320  -72.9160   -3.5830 O         1 <0>         0.0041
  23146 WAT       -34.9320  -72.9160   -3.3330 O         1 <0>         0.0022
  23147 WAT       -34.9320  -72.9160   -3.0830 O         1 <0>         0.0013
  23148 WAT       -34.9320  -72.9160   -2.8330 O         1 <0>         0.0009
  23149 WAT       -34.9320  -72.9160   -2.5830 O         1 <0>         0.0011
  23150 WAT       -34.9320  -72.9160   -2.3330 O         1 <0>         0.0017
  23151 WAT       -34.9320  -72.9160   -2.0830 O         1 <0>         0.0021
  23152 WAT       -34.9320  -72.9160   -1.8330 O         1 <0>         0.0018
  23153 WAT       -34.9320  -72.9160   -1.5830 O         1 <0>         0.0010
  23154 WAT       -34.9320  -72.9160   -1.3330 O         1 <0>         0.0004
  23155 WAT       -34.9320  -72.9160   -1.0830 O         1 <0>         0.0001
  23156 WAT       -34.9320  -72.9160   -0.8330 O         1 <0>         0.0000
  23157 WAT       -34.9320  -72.9160   -0.5830 O         1 <0>         0.0000
  23158 WAT       -34.9320  -72.9160   -0.3330 O         1 <0>         0.0000
  23159 WAT       -34.9320  -72.9160   -0.0830 O         1 <0>         0.0000
  23160 WAT       -34.9320  -72.6660   -9.8330 O         1 <0>         0.0000
  23161 WAT       -34.9320  -72.6660   -9.5830 O         1 <0>         0.0000
  23162 WAT       -34.9320  -72.6660   -9.3330 O         1 <0>         0.0000
  23163 WAT       -34.9320  -72.6660   -9.0830 O         1 <0>         0.0000
  23164 WAT       -34.9320  -72.6660   -8.8330 O         1 <0>         0.0000
  23165 WAT       -34.9320  -72.6660   -8.5830 O         1 <0>         0.0000
  23166 WAT       -34.9320  -72.6660   -8.3330 O         1 <0>         0.0006
  23167 WAT       -34.9320  -72.6660   -8.0830 O         1 <0>         0.0089
  23168 WAT       -34.9320  -72.6660   -7.8330 O         1 <0>         0.0433
  23169 WAT       -34.9320  -72.6660   -7.5830 O         1 <0>         0.1166
  23170 WAT       -34.9320  -72.6660   -7.3330 O         1 <0>         0.1989
  23171 WAT       -34.9320  -72.6660   -7.0830 O         1 <0>         0.2229
  23172 WAT       -34.9320  -72.6660   -6.8330 O         1 <0>         0.1693
  23173 WAT       -34.9320  -72.6660   -6.5830 O         1 <0>         0.0902
  23174 WAT       -34.9320  -72.6660   -6.3330 O         1 <0>         0.0348
  23175 WAT       -34.9320  -72.6660   -6.0830 O         1 <0>         0.0099
  23176 WAT       -34.9320  -72.6660   -5.8330 O         1 <0>         0.0025
  23177 WAT       -34.9320  -72.6660   -5.5830 O         1 <0>         0.0021
  23178 WAT       -34.9320  -72.6660   -5.3330 O         1 <0>         0.0058
  23179 WAT       -34.9320  -72.6660   -5.0830 O         1 <0>         0.0124
  23180 WAT       -34.9320  -72.6660   -4.8330 O         1 <0>         0.0188
  23181 WAT       -34.9320  -72.6660   -4.5830 O         1 <0>         0.0200
  23182 WAT       -34.9320  -72.6660   -4.3330 O         1 <0>         0.0151
  23183 WAT       -34.9320  -72.6660   -4.0830 O         1 <0>         0.0082
  23184 WAT       -34.9320  -72.6660   -3.8330 O         1 <0>         0.0033
  23185 WAT       -34.9320  -72.6660   -3.5830 O         1 <0>         0.0011
  23186 WAT       -34.9320  -72.6660   -3.3330 O         1 <0>         0.0005
  23187 WAT       -34.9320  -72.6660   -3.0830 O         1 <0>         0.0002
  23188 WAT       -34.9320  -72.6660   -2.8330 O         1 <0>         0.0002
  23189 WAT       -34.9320  -72.6660   -2.5830 O         1 <0>         0.0004
  23190 WAT       -34.9320  -72.6660   -2.3330 O         1 <0>         0.0007
  23191 WAT       -34.9320  -72.6660   -2.0830 O         1 <0>         0.0009
  23192 WAT       -34.9320  -72.6660   -1.8330 O         1 <0>         0.0008
  23193 WAT       -34.9320  -72.6660   -1.5830 O         1 <0>         0.0005
  23194 WAT       -34.9320  -72.6660   -1.3330 O         1 <0>         0.0002
  23195 WAT       -34.9320  -72.6660   -1.0830 O         1 <0>         0.0000
  23196 WAT       -34.9320  -72.6660   -0.8330 O         1 <0>         0.0000
  23197 WAT       -34.9320  -72.6660   -0.5830 O         1 <0>         0.0000
  23198 WAT       -34.9320  -72.6660   -0.3330 O         1 <0>         0.0000
  23199 WAT       -34.9320  -72.6660   -0.0830 O         1 <0>         0.0000
  23200 WAT       -34.9320  -72.4160   -9.8330 O         1 <0>         0.0000
  23201 WAT       -34.9320  -72.4160   -9.5830 O         1 <0>         0.0000
  23202 WAT       -34.9320  -72.4160   -9.3330 O         1 <0>         0.0000
  23203 WAT       -34.9320  -72.4160   -9.0830 O         1 <0>         0.0000
  23204 WAT       -34.9320  -72.4160   -8.8330 O         1 <0>         0.0000
  23205 WAT       -34.9320  -72.4160   -8.5830 O         1 <0>         0.0000
  23206 WAT       -34.9320  -72.4160   -8.3330 O         1 <0>         0.0018
  23207 WAT       -34.9320  -72.4160   -8.0830 O         1 <0>         0.0202
  23208 WAT       -34.9320  -72.4160   -7.8330 O         1 <0>         0.0850
  23209 WAT       -34.9320  -72.4160   -7.5830 O         1 <0>         0.2110
  23210 WAT       -34.9320  -72.4160   -7.3330 O         1 <0>         0.3344
  23211 WAT       -34.9320  -72.4160   -7.0830 O         1 <0>         0.3462
  23212 WAT       -34.9320  -72.4160   -6.8330 O         1 <0>         0.2393
  23213 WAT       -34.9320  -72.4160   -6.5830 O         1 <0>         0.1136
  23214 WAT       -34.9320  -72.4160   -6.3330 O         1 <0>         0.0380
  23215 WAT       -34.9320  -72.4160   -6.0830 O         1 <0>         0.0091
  23216 WAT       -34.9320  -72.4160   -5.8330 O         1 <0>         0.0017
  23217 WAT       -34.9320  -72.4160   -5.5830 O         1 <0>         0.0006
  23218 WAT       -34.9320  -72.4160   -5.3330 O         1 <0>         0.0013
  23219 WAT       -34.9320  -72.4160   -5.0830 O         1 <0>         0.0032
  23220 WAT       -34.9320  -72.4160   -4.8330 O         1 <0>         0.0051
  23221 WAT       -34.9320  -72.4160   -4.5830 O         1 <0>         0.0056
  23222 WAT       -34.9320  -72.4160   -4.3330 O         1 <0>         0.0042
  23223 WAT       -34.9320  -72.4160   -4.0830 O         1 <0>         0.0021
  23224 WAT       -34.9320  -72.4160   -3.8330 O         1 <0>         0.0008
  23225 WAT       -34.9320  -72.4160   -3.5830 O         1 <0>         0.0002
  23226 WAT       -34.9320  -72.4160   -3.3330 O         1 <0>         0.0001
  23227 WAT       -34.9320  -72.4160   -3.0830 O         1 <0>         0.0000
  23228 WAT       -34.9320  -72.4160   -2.8330 O         1 <0>         0.0000
  23229 WAT       -34.9320  -72.4160   -2.5830 O         1 <0>         0.0001
  23230 WAT       -34.9320  -72.4160   -2.3330 O         1 <0>         0.0002
  23231 WAT       -34.9320  -72.4160   -2.0830 O         1 <0>         0.0002
  23232 WAT       -34.9320  -72.4160   -1.8330 O         1 <0>         0.0002
  23233 WAT       -34.9320  -72.4160   -1.5830 O         1 <0>         0.0001
  23234 WAT       -34.9320  -72.4160   -1.3330 O         1 <0>         0.0000
  23235 WAT       -34.9320  -72.4160   -1.0830 O         1 <0>         0.0000
  23236 WAT       -34.9320  -72.4160   -0.8330 O         1 <0>         0.0000
  23237 WAT       -34.9320  -72.4160   -0.5830 O         1 <0>         0.0000
  23238 WAT       -34.9320  -72.4160   -0.3330 O         1 <0>         0.0000
  23239 WAT       -34.9320  -72.4160   -0.0830 O         1 <0>         0.0000
  23240 WAT       -34.9320  -72.1660   -9.8330 O         1 <0>         0.0000
  23241 WAT       -34.9320  -72.1660   -9.5830 O         1 <0>         0.0000
  23242 WAT       -34.9320  -72.1660   -9.3330 O         1 <0>         0.0000
  23243 WAT       -34.9320  -72.1660   -9.0830 O         1 <0>         0.0000
  23244 WAT       -34.9320  -72.1660   -8.8330 O         1 <0>         0.0000
  23245 WAT       -34.9320  -72.1660   -8.5830 O         1 <0>         0.0000
  23246 WAT       -34.9320  -72.1660   -8.3330 O         1 <0>         0.0040
  23247 WAT       -34.9320  -72.1660   -8.0830 O         1 <0>         0.0348
  23248 WAT       -34.9320  -72.1660   -7.8330 O         1 <0>         0.1326
  23249 WAT       -34.9320  -72.1660   -7.5830 O         1 <0>         0.3077
  23250 WAT       -34.9320  -72.1660   -7.3330 O         1 <0>         0.4559
  23251 WAT       -34.9320  -72.1660   -7.0830 O         1 <0>         0.4381
  23252 WAT       -34.9320  -72.1660   -6.8330 O         1 <0>         0.2778
  23253 WAT       -34.9320  -72.1660   -6.5830 O         1 <0>         0.1188
  23254 WAT       -34.9320  -72.1660   -6.3330 O         1 <0>         0.0344
  23255 WAT       -34.9320  -72.1660   -6.0830 O         1 <0>         0.0067
  23256 WAT       -34.9320  -72.1660   -5.8330 O         1 <0>         0.0010
  23257 WAT       -34.9320  -72.1660   -5.5830 O         1 <0>         0.0001
  23258 WAT       -34.9320  -72.1660   -5.3330 O         1 <0>         0.0002
  23259 WAT       -34.9320  -72.1660   -5.0830 O         1 <0>         0.0005
  23260 WAT       -34.9320  -72.1660   -4.8330 O         1 <0>         0.0009
  23261 WAT       -34.9320  -72.1660   -4.5830 O         1 <0>         0.0010
  23262 WAT       -34.9320  -72.1660   -4.3330 O         1 <0>         0.0007
  23263 WAT       -34.9320  -72.1660   -4.0830 O         1 <0>         0.0003
  23264 WAT       -34.9320  -72.1660   -3.8330 O         1 <0>         0.0001
  23265 WAT       -34.9320  -72.1660   -3.5830 O         1 <0>         0.0000
  23266 WAT       -34.9320  -72.1660   -3.3330 O         1 <0>         0.0000
  23267 WAT       -34.9320  -72.1660   -3.0830 O         1 <0>         0.0000
  23268 WAT       -34.9320  -72.1660   -2.8330 O         1 <0>         0.0000
  23269 WAT       -34.9320  -72.1660   -2.5830 O         1 <0>         0.0000
  23270 WAT       -34.9320  -72.1660   -2.3330 O         1 <0>         0.0000
  23271 WAT       -34.9320  -72.1660   -2.0830 O         1 <0>         0.0000
  23272 WAT       -34.9320  -72.1660   -1.8330 O         1 <0>         0.0000
  23273 WAT       -34.9320  -72.1660   -1.5830 O         1 <0>         0.0000
  23274 WAT       -34.9320  -72.1660   -1.3330 O         1 <0>         0.0000
  23275 WAT       -34.9320  -72.1660   -1.0830 O         1 <0>         0.0000
  23276 WAT       -34.9320  -72.1660   -0.8330 O         1 <0>         0.0000
  23277 WAT       -34.9320  -72.1660   -0.5830 O         1 <0>         0.0000
  23278 WAT       -34.9320  -72.1660   -0.3330 O         1 <0>         0.0000
  23279 WAT       -34.9320  -72.1660   -0.0830 O         1 <0>         0.0000
  23280 WAT       -34.9320  -71.9160   -9.8330 O         1 <0>         0.0000
  23281 WAT       -34.9320  -71.9160   -9.5830 O         1 <0>         0.0000
  23282 WAT       -34.9320  -71.9160   -9.3330 O         1 <0>         0.0000
  23283 WAT       -34.9320  -71.9160   -9.0830 O         1 <0>         0.0000
  23284 WAT       -34.9320  -71.9160   -8.8330 O         1 <0>         0.0000
  23285 WAT       -34.9320  -71.9160   -8.5830 O         1 <0>         0.0001
  23286 WAT       -34.9320  -71.9160   -8.3330 O         1 <0>         0.0063
  23287 WAT       -34.9320  -71.9160   -8.0830 O         1 <0>         0.0457
  23288 WAT       -34.9320  -71.9160   -7.8330 O         1 <0>         0.1630
  23289 WAT       -34.9320  -71.9160   -7.5830 O         1 <0>         0.3575
  23290 WAT       -34.9320  -71.9160   -7.3330 O         1 <0>         0.4983
  23291 WAT       -34.9320  -71.9160   -7.0830 O         1 <0>         0.4471
  23292 WAT       -34.9320  -71.9160   -6.8330 O         1 <0>         0.2620
  23293 WAT       -34.9320  -71.9160   -6.5830 O         1 <0>         0.1017
  23294 WAT       -34.9320  -71.9160   -6.3330 O         1 <0>         0.0254
  23295 WAT       -34.9320  -71.9160   -6.0830 O         1 <0>         0.0037
  23296 WAT       -34.9320  -71.9160   -5.8330 O         1 <0>         0.0004
  23297 WAT       -34.9320  -71.9160   -5.5830 O         1 <0>         0.0000
  23298 WAT       -34.9320  -71.9160   -5.3330 O         1 <0>         0.0000
  23299 WAT       -34.9320  -71.9160   -5.0830 O         1 <0>         0.0000
  23300 WAT       -34.9320  -71.9160   -4.8330 O         1 <0>         0.0001
  23301 WAT       -34.9320  -71.9160   -4.5830 O         1 <0>         0.0001
  23302 WAT       -34.9320  -71.9160   -4.3330 O         1 <0>         0.0001
  23303 WAT       -34.9320  -71.9160   -4.0830 O         1 <0>         0.0000
  23304 WAT       -34.9320  -71.9160   -3.8330 O         1 <0>         0.0000
  23305 WAT       -34.9320  -71.9160   -3.5830 O         1 <0>         0.0000
  23306 WAT       -34.9320  -71.9160   -3.3330 O         1 <0>         0.0000
  23307 WAT       -34.9320  -71.9160   -3.0830 O         1 <0>         0.0000
  23308 WAT       -34.9320  -71.9160   -2.8330 O         1 <0>         0.0000
  23309 WAT       -34.9320  -71.9160   -2.5830 O         1 <0>         0.0000
  23310 WAT       -34.9320  -71.9160   -2.3330 O         1 <0>         0.0000
  23311 WAT       -34.9320  -71.9160   -2.0830 O         1 <0>         0.0000
  23312 WAT       -34.9320  -71.9160   -1.8330 O         1 <0>         0.0000
  23313 WAT       -34.9320  -71.9160   -1.5830 O         1 <0>         0.0000
  23314 WAT       -34.9320  -71.9160   -1.3330 O         1 <0>         0.0000
  23315 WAT       -34.9320  -71.9160   -1.0830 O         1 <0>         0.0000
  23316 WAT       -34.9320  -71.9160   -0.8330 O         1 <0>         0.0000
  23317 WAT       -34.9320  -71.9160   -0.5830 O         1 <0>         0.0000
  23318 WAT       -34.9320  -71.9160   -0.3330 O         1 <0>         0.0000
  23319 WAT       -34.9320  -71.9160   -0.0830 O         1 <0>         0.0000
  23320 WAT       -34.9320  -71.6660   -9.8330 O         1 <0>         0.0000
  23321 WAT       -34.9320  -71.6660   -9.5830 O         1 <0>         0.0000
  23322 WAT       -34.9320  -71.6660   -9.3330 O         1 <0>         0.0000
  23323 WAT       -34.9320  -71.6660   -9.0830 O         1 <0>         0.0000
  23324 WAT       -34.9320  -71.6660   -8.8330 O         1 <0>         0.0000
  23325 WAT       -34.9320  -71.6660   -8.5830 O         1 <0>         0.0002
  23326 WAT       -34.9320  -71.6660   -8.3330 O         1 <0>         0.0069
  23327 WAT       -34.9320  -71.6660   -8.0830 O         1 <0>         0.0457
  23328 WAT       -34.9320  -71.6660   -7.8330 O         1 <0>         0.1556
  23329 WAT       -34.9320  -71.6660   -7.5830 O         1 <0>         0.3259
  23330 WAT       -34.9320  -71.6660   -7.3330 O         1 <0>         0.4314
  23331 WAT       -34.9320  -71.6660   -7.0830 O         1 <0>         0.3649
  23332 WAT       -34.9320  -71.6660   -6.8330 O         1 <0>         0.1995
  23333 WAT       -34.9320  -71.6660   -6.5830 O         1 <0>         0.0708
  23334 WAT       -34.9320  -71.6660   -6.3330 O         1 <0>         0.0149
  23335 WAT       -34.9320  -71.6660   -6.0830 O         1 <0>         0.0016
  23336 WAT       -34.9320  -71.6660   -5.8330 O         1 <0>         0.0001
  23337 WAT       -34.9320  -71.6660   -5.5830 O         1 <0>         0.0000
  23338 WAT       -34.9320  -71.6660   -5.3330 O         1 <0>         0.0000
  23339 WAT       -34.9320  -71.6660   -5.0830 O         1 <0>         0.0000
  23340 WAT       -34.9320  -71.6660   -4.8330 O         1 <0>         0.0000
  23341 WAT       -34.9320  -71.6660   -4.5830 O         1 <0>         0.0000
  23342 WAT       -34.9320  -71.6660   -4.3330 O         1 <0>         0.0000
  23343 WAT       -34.9320  -71.6660   -4.0830 O         1 <0>         0.0000
  23344 WAT       -34.9320  -71.6660   -3.8330 O         1 <0>         0.0000
  23345 WAT       -34.9320  -71.6660   -3.5830 O         1 <0>         0.0000
  23346 WAT       -34.9320  -71.6660   -3.3330 O         1 <0>         0.0000
  23347 WAT       -34.9320  -71.6660   -3.0830 O         1 <0>         0.0000
  23348 WAT       -34.9320  -71.6660   -2.8330 O         1 <0>         0.0000
  23349 WAT       -34.9320  -71.6660   -2.5830 O         1 <0>         0.0000
  23350 WAT       -34.9320  -71.6660   -2.3330 O         1 <0>         0.0000
  23351 WAT       -34.9320  -71.6660   -2.0830 O         1 <0>         0.0000
  23352 WAT       -34.9320  -71.6660   -1.8330 O         1 <0>         0.0000
  23353 WAT       -34.9320  -71.6660   -1.5830 O         1 <0>         0.0000
  23354 WAT       -34.9320  -71.6660   -1.3330 O         1 <0>         0.0000
  23355 WAT       -34.9320  -71.6660   -1.0830 O         1 <0>         0.0000
  23356 WAT       -34.9320  -71.6660   -0.8330 O         1 <0>         0.0000
  23357 WAT       -34.9320  -71.6660   -0.5830 O         1 <0>         0.0000
  23358 WAT       -34.9320  -71.6660   -0.3330 O         1 <0>         0.0000
  23359 WAT       -34.9320  -71.6660   -0.0830 O         1 <0>         0.0000
  23360 WAT       -34.9320  -71.4160   -9.8330 O         1 <0>         0.0000
  23361 WAT       -34.9320  -71.4160   -9.5830 O         1 <0>         0.0000
  23362 WAT       -34.9320  -71.4160   -9.3330 O         1 <0>         0.0000
  23363 WAT       -34.9320  -71.4160   -9.0830 O         1 <0>         0.0000
  23364 WAT       -34.9320  -71.4160   -8.8330 O         1 <0>         0.0000
  23365 WAT       -34.9320  -71.4160   -8.5830 O         1 <0>         0.0002
  23366 WAT       -34.9320  -71.4160   -8.3330 O         1 <0>         0.0053
  23367 WAT       -34.9320  -71.4160   -8.0830 O         1 <0>         0.0344
  23368 WAT       -34.9320  -71.4160   -7.8330 O         1 <0>         0.1135
  23369 WAT       -34.9320  -71.4160   -7.5830 O         1 <0>         0.2296
  23370 WAT       -34.9320  -71.4160   -7.3330 O         1 <0>         0.2920
  23371 WAT       -34.9320  -71.4160   -7.0830 O         1 <0>         0.2358
  23372 WAT       -34.9320  -71.4160   -6.8330 O         1 <0>         0.1217
  23373 WAT       -34.9320  -71.4160   -6.5830 O         1 <0>         0.0395
  23374 WAT       -34.9320  -71.4160   -6.3330 O         1 <0>         0.0069
  23375 WAT       -34.9320  -71.4160   -6.0830 O         1 <0>         0.0005
  23376 WAT       -34.9320  -71.4160   -5.8330 O         1 <0>         0.0000
  23377 WAT       -34.9320  -71.4160   -5.5830 O         1 <0>         0.0000
  23378 WAT       -34.9320  -71.4160   -5.3330 O         1 <0>         0.0000
  23379 WAT       -34.9320  -71.4160   -5.0830 O         1 <0>         0.0000
  23380 WAT       -34.9320  -71.4160   -4.8330 O         1 <0>         0.0000
  23381 WAT       -34.9320  -71.4160   -4.5830 O         1 <0>         0.0000
  23382 WAT       -34.9320  -71.4160   -4.3330 O         1 <0>         0.0000
  23383 WAT       -34.9320  -71.4160   -4.0830 O         1 <0>         0.0000
  23384 WAT       -34.9320  -71.4160   -3.8330 O         1 <0>         0.0000
  23385 WAT       -34.9320  -71.4160   -3.5830 O         1 <0>         0.0000
  23386 WAT       -34.9320  -71.4160   -3.3330 O         1 <0>         0.0000
  23387 WAT       -34.9320  -71.4160   -3.0830 O         1 <0>         0.0000
  23388 WAT       -34.9320  -71.4160   -2.8330 O         1 <0>         0.0000
  23389 WAT       -34.9320  -71.4160   -2.5830 O         1 <0>         0.0000
  23390 WAT       -34.9320  -71.4160   -2.3330 O         1 <0>         0.0000
  23391 WAT       -34.9320  -71.4160   -2.0830 O         1 <0>         0.0000
  23392 WAT       -34.9320  -71.4160   -1.8330 O         1 <0>         0.0000
  23393 WAT       -34.9320  -71.4160   -1.5830 O         1 <0>         0.0000
  23394 WAT       -34.9320  -71.4160   -1.3330 O         1 <0>         0.0000
  23395 WAT       -34.9320  -71.4160   -1.0830 O         1 <0>         0.0000
  23396 WAT       -34.9320  -71.4160   -0.8330 O         1 <0>         0.0000
  23397 WAT       -34.9320  -71.4160   -0.5830 O         1 <0>         0.0000
  23398 WAT       -34.9320  -71.4160   -0.3330 O         1 <0>         0.0000
  23399 WAT       -34.9320  -71.4160   -0.0830 O         1 <0>         0.0000
  23400 WAT       -34.9320  -71.1660   -9.8330 O         1 <0>         0.0000
  23401 WAT       -34.9320  -71.1660   -9.5830 O         1 <0>         0.0000
  23402 WAT       -34.9320  -71.1660   -9.3330 O         1 <0>         0.0000
  23403 WAT       -34.9320  -71.1660   -9.0830 O         1 <0>         0.0000
  23404 WAT       -34.9320  -71.1660   -8.8330 O         1 <0>         0.0000
  23405 WAT       -34.9320  -71.1660   -8.5830 O         1 <0>         0.0001
  23406 WAT       -34.9320  -71.1660   -8.3330 O         1 <0>         0.0029
  23407 WAT       -34.9320  -71.1660   -8.0830 O         1 <0>         0.0191
  23408 WAT       -34.9320  -71.1660   -7.8330 O         1 <0>         0.0626
  23409 WAT       -34.9320  -71.1660   -7.5830 O         1 <0>         0.1238
  23410 WAT       -34.9320  -71.1660   -7.3330 O         1 <0>         0.1531
  23411 WAT       -34.9320  -71.1660   -7.0830 O         1 <0>         0.1197
  23412 WAT       -34.9320  -71.1660   -6.8330 O         1 <0>         0.0590
  23413 WAT       -34.9320  -71.1660   -6.5830 O         1 <0>         0.0175
  23414 WAT       -34.9320  -71.1660   -6.3330 O         1 <0>         0.0025
  23415 WAT       -34.9320  -71.1660   -6.0830 O         1 <0>         0.0001
  23416 WAT       -34.9320  -71.1660   -5.8330 O         1 <0>         0.0000
  23417 WAT       -34.9320  -71.1660   -5.5830 O         1 <0>         0.0000
  23418 WAT       -34.9320  -71.1660   -5.3330 O         1 <0>         0.0000
  23419 WAT       -34.9320  -71.1660   -5.0830 O         1 <0>         0.0000
  23420 WAT       -34.9320  -71.1660   -4.8330 O         1 <0>         0.0000
  23421 WAT       -34.9320  -71.1660   -4.5830 O         1 <0>         0.0000
  23422 WAT       -34.9320  -71.1660   -4.3330 O         1 <0>         0.0000
  23423 WAT       -34.9320  -71.1660   -4.0830 O         1 <0>         0.0000
  23424 WAT       -34.9320  -71.1660   -3.8330 O         1 <0>         0.0000
  23425 WAT       -34.9320  -71.1660   -3.5830 O         1 <0>         0.0000
  23426 WAT       -34.9320  -71.1660   -3.3330 O         1 <0>         0.0000
  23427 WAT       -34.9320  -71.1660   -3.0830 O         1 <0>         0.0000
  23428 WAT       -34.9320  -71.1660   -2.8330 O         1 <0>         0.0000
  23429 WAT       -34.9320  -71.1660   -2.5830 O         1 <0>         0.0000
  23430 WAT       -34.9320  -71.1660   -2.3330 O         1 <0>         0.0000
  23431 WAT       -34.9320  -71.1660   -2.0830 O         1 <0>         0.0000
  23432 WAT       -34.9320  -71.1660   -1.8330 O         1 <0>         0.0000
  23433 WAT       -34.9320  -71.1660   -1.5830 O         1 <0>         0.0000
  23434 WAT       -34.9320  -71.1660   -1.3330 O         1 <0>         0.0000
  23435 WAT       -34.9320  -71.1660   -1.0830 O         1 <0>         0.0000
  23436 WAT       -34.9320  -71.1660   -0.8330 O         1 <0>         0.0000
  23437 WAT       -34.9320  -71.1660   -0.5830 O         1 <0>         0.0000
  23438 WAT       -34.9320  -71.1660   -0.3330 O         1 <0>         0.0000
  23439 WAT       -34.9320  -71.1660   -0.0830 O         1 <0>         0.0000
  23440 WAT       -34.9320  -70.9160   -9.8330 O         1 <0>         0.0000
  23441 WAT       -34.9320  -70.9160   -9.5830 O         1 <0>         0.0000
  23442 WAT       -34.9320  -70.9160   -9.3330 O         1 <0>         0.0000
  23443 WAT       -34.9320  -70.9160   -9.0830 O         1 <0>         0.0000
  23444 WAT       -34.9320  -70.9160   -8.8330 O         1 <0>         0.0000
  23445 WAT       -34.9320  -70.9160   -8.5830 O         1 <0>         0.0000
  23446 WAT       -34.9320  -70.9160   -8.3330 O         1 <0>         0.0011
  23447 WAT       -34.9320  -70.9160   -8.0830 O         1 <0>         0.0076
  23448 WAT       -34.9320  -70.9160   -7.8330 O         1 <0>         0.0257
  23449 WAT       -34.9320  -70.9160   -7.5830 O         1 <0>         0.0505
  23450 WAT       -34.9320  -70.9160   -7.3330 O         1 <0>         0.0617
  23451 WAT       -34.9320  -70.9160   -7.0830 O         1 <0>         0.0474
  23452 WAT       -34.9320  -70.9160   -6.8330 O         1 <0>         0.0225
  23453 WAT       -34.9320  -70.9160   -6.5830 O         1 <0>         0.0062
  23454 WAT       -34.9320  -70.9160   -6.3330 O         1 <0>         0.0008
  23455 WAT       -34.9320  -70.9160   -6.0830 O         1 <0>         0.0000
  23456 WAT       -34.9320  -70.9160   -5.8330 O         1 <0>         0.0000
  23457 WAT       -34.9320  -70.9160   -5.5830 O         1 <0>         0.0000
  23458 WAT       -34.9320  -70.9160   -5.3330 O         1 <0>         0.0000
  23459 WAT       -34.9320  -70.9160   -5.0830 O         1 <0>         0.0000
  23460 WAT       -34.9320  -70.9160   -4.8330 O         1 <0>         0.0000
  23461 WAT       -34.9320  -70.9160   -4.5830 O         1 <0>         0.0000
  23462 WAT       -34.9320  -70.9160   -4.3330 O         1 <0>         0.0000
  23463 WAT       -34.9320  -70.9160   -4.0830 O         1 <0>         0.0000
  23464 WAT       -34.9320  -70.9160   -3.8330 O         1 <0>         0.0000
  23465 WAT       -34.9320  -70.9160   -3.5830 O         1 <0>         0.0000
  23466 WAT       -34.9320  -70.9160   -3.3330 O         1 <0>         0.0000
  23467 WAT       -34.9320  -70.9160   -3.0830 O         1 <0>         0.0000
  23468 WAT       -34.9320  -70.9160   -2.8330 O         1 <0>         0.0000
  23469 WAT       -34.9320  -70.9160   -2.5830 O         1 <0>         0.0000
  23470 WAT       -34.9320  -70.9160   -2.3330 O         1 <0>         0.0000
  23471 WAT       -34.9320  -70.9160   -2.0830 O         1 <0>         0.0000
  23472 WAT       -34.9320  -70.9160   -1.8330 O         1 <0>         0.0000
  23473 WAT       -34.9320  -70.9160   -1.5830 O         1 <0>         0.0000
  23474 WAT       -34.9320  -70.9160   -1.3330 O         1 <0>         0.0000
  23475 WAT       -34.9320  -70.9160   -1.0830 O         1 <0>         0.0000
  23476 WAT       -34.9320  -70.9160   -0.8330 O         1 <0>         0.0000
  23477 WAT       -34.9320  -70.9160   -0.5830 O         1 <0>         0.0000
  23478 WAT       -34.9320  -70.9160   -0.3330 O         1 <0>         0.0000
  23479 WAT       -34.9320  -70.9160   -0.0830 O         1 <0>         0.0000
  23480 WAT       -34.9320  -70.6660   -9.8330 O         1 <0>         0.0000
  23481 WAT       -34.9320  -70.6660   -9.5830 O         1 <0>         0.0000
  23482 WAT       -34.9320  -70.6660   -9.3330 O         1 <0>         0.0000
  23483 WAT       -34.9320  -70.6660   -9.0830 O         1 <0>         0.0000
  23484 WAT       -34.9320  -70.6660   -8.8330 O         1 <0>         0.0000
  23485 WAT       -34.9320  -70.6660   -8.5830 O         1 <0>         0.0000
  23486 WAT       -34.9320  -70.6660   -8.3330 O         1 <0>         0.0003
  23487 WAT       -34.9320  -70.6660   -8.0830 O         1 <0>         0.0021
  23488 WAT       -34.9320  -70.6660   -7.8330 O         1 <0>         0.0075
  23489 WAT       -34.9320  -70.6660   -7.5830 O         1 <0>         0.0152
  23490 WAT       -34.9320  -70.6660   -7.3330 O         1 <0>         0.0188
  23491 WAT       -34.9320  -70.6660   -7.0830 O         1 <0>         0.0144
  23492 WAT       -34.9320  -70.6660   -6.8330 O         1 <0>         0.0068
  23493 WAT       -34.9320  -70.6660   -6.5830 O         1 <0>         0.0018
  23494 WAT       -34.9320  -70.6660   -6.3330 O         1 <0>         0.0002
  23495 WAT       -34.9320  -70.6660   -6.0830 O         1 <0>         0.0000
  23496 WAT       -34.9320  -70.6660   -5.8330 O         1 <0>         0.0000
  23497 WAT       -34.9320  -70.6660   -5.5830 O         1 <0>         0.0000
  23498 WAT       -34.9320  -70.6660   -5.3330 O         1 <0>         0.0000
  23499 WAT       -34.9320  -70.6660   -5.0830 O         1 <0>         0.0000
  23500 WAT       -34.9320  -70.6660   -4.8330 O         1 <0>         0.0000
  23501 WAT       -34.9320  -70.6660   -4.5830 O         1 <0>         0.0000
  23502 WAT       -34.9320  -70.6660   -4.3330 O         1 <0>         0.0000
  23503 WAT       -34.9320  -70.6660   -4.0830 O         1 <0>         0.0000
  23504 WAT       -34.9320  -70.6660   -3.8330 O         1 <0>         0.0000
  23505 WAT       -34.9320  -70.6660   -3.5830 O         1 <0>         0.0000
  23506 WAT       -34.9320  -70.6660   -3.3330 O         1 <0>         0.0000
  23507 WAT       -34.9320  -70.6660   -3.0830 O         1 <0>         0.0000
  23508 WAT       -34.9320  -70.6660   -2.8330 O         1 <0>         0.0000
  23509 WAT       -34.9320  -70.6660   -2.5830 O         1 <0>         0.0000
  23510 WAT       -34.9320  -70.6660   -2.3330 O         1 <0>         0.0000
  23511 WAT       -34.9320  -70.6660   -2.0830 O         1 <0>         0.0000
  23512 WAT       -34.9320  -70.6660   -1.8330 O         1 <0>         0.0000
  23513 WAT       -34.9320  -70.6660   -1.5830 O         1 <0>         0.0000
  23514 WAT       -34.9320  -70.6660   -1.3330 O         1 <0>         0.0000
  23515 WAT       -34.9320  -70.6660   -1.0830 O         1 <0>         0.0000
  23516 WAT       -34.9320  -70.6660   -0.8330 O         1 <0>         0.0000
  23517 WAT       -34.9320  -70.6660   -0.5830 O         1 <0>         0.0000
  23518 WAT       -34.9320  -70.6660   -0.3330 O         1 <0>         0.0000
  23519 WAT       -34.9320  -70.6660   -0.0830 O         1 <0>         0.0000
  23520 WAT       -34.9320  -70.4160   -9.8330 O         1 <0>         0.0000
  23521 WAT       -34.9320  -70.4160   -9.5830 O         1 <0>         0.0000
  23522 WAT       -34.9320  -70.4160   -9.3330 O         1 <0>         0.0000
  23523 WAT       -34.9320  -70.4160   -9.0830 O         1 <0>         0.0000
  23524 WAT       -34.9320  -70.4160   -8.8330 O         1 <0>         0.0000
  23525 WAT       -34.9320  -70.4160   -8.5830 O         1 <0>         0.0000
  23526 WAT       -34.9320  -70.4160   -8.3330 O         1 <0>         0.0000
  23527 WAT       -34.9320  -70.4160   -8.0830 O         1 <0>         0.0004
  23528 WAT       -34.9320  -70.4160   -7.8330 O         1 <0>         0.0015
  23529 WAT       -34.9320  -70.4160   -7.5830 O         1 <0>         0.0032
  23530 WAT       -34.9320  -70.4160   -7.3330 O         1 <0>         0.0041
  23531 WAT       -34.9320  -70.4160   -7.0830 O         1 <0>         0.0033
  23532 WAT       -34.9320  -70.4160   -6.8330 O         1 <0>         0.0016
  23533 WAT       -34.9320  -70.4160   -6.5830 O         1 <0>         0.0005
  23534 WAT       -34.9320  -70.4160   -6.3330 O         1 <0>         0.0001
  23535 WAT       -34.9320  -70.4160   -6.0830 O         1 <0>         0.0000
  23536 WAT       -34.9320  -70.4160   -5.8330 O         1 <0>         0.0000
  23537 WAT       -34.9320  -70.4160   -5.5830 O         1 <0>         0.0000
  23538 WAT       -34.9320  -70.4160   -5.3330 O         1 <0>         0.0000
  23539 WAT       -34.9320  -70.4160   -5.0830 O         1 <0>         0.0000
  23540 WAT       -34.9320  -70.4160   -4.8330 O         1 <0>         0.0000
  23541 WAT       -34.9320  -70.4160   -4.5830 O         1 <0>         0.0000
  23542 WAT       -34.9320  -70.4160   -4.3330 O         1 <0>         0.0000
  23543 WAT       -34.9320  -70.4160   -4.0830 O         1 <0>         0.0000
  23544 WAT       -34.9320  -70.4160   -3.8330 O         1 <0>         0.0000
  23545 WAT       -34.9320  -70.4160   -3.5830 O         1 <0>         0.0000
  23546 WAT       -34.9320  -70.4160   -3.3330 O         1 <0>         0.0000
  23547 WAT       -34.9320  -70.4160   -3.0830 O         1 <0>         0.0000
  23548 WAT       -34.9320  -70.4160   -2.8330 O         1 <0>         0.0000
  23549 WAT       -34.9320  -70.4160   -2.5830 O         1 <0>         0.0000
  23550 WAT       -34.9320  -70.4160   -2.3330 O         1 <0>         0.0000
  23551 WAT       -34.9320  -70.4160   -2.0830 O         1 <0>         0.0000
  23552 WAT       -34.9320  -70.4160   -1.8330 O         1 <0>         0.0000
  23553 WAT       -34.9320  -70.4160   -1.5830 O         1 <0>         0.0000
  23554 WAT       -34.9320  -70.4160   -1.3330 O         1 <0>         0.0000
  23555 WAT       -34.9320  -70.4160   -1.0830 O         1 <0>         0.0000
  23556 WAT       -34.9320  -70.4160   -0.8330 O         1 <0>         0.0000
  23557 WAT       -34.9320  -70.4160   -0.5830 O         1 <0>         0.0000
  23558 WAT       -34.9320  -70.4160   -0.3330 O         1 <0>         0.0000
  23559 WAT       -34.9320  -70.4160   -0.0830 O         1 <0>         0.0000
  23560 WAT       -34.9320  -70.1660   -9.8330 O         1 <0>         0.0000
  23561 WAT       -34.9320  -70.1660   -9.5830 O         1 <0>         0.0000
  23562 WAT       -34.9320  -70.1660   -9.3330 O         1 <0>         0.0000
  23563 WAT       -34.9320  -70.1660   -9.0830 O         1 <0>         0.0000
  23564 WAT       -34.9320  -70.1660   -8.8330 O         1 <0>         0.0000
  23565 WAT       -34.9320  -70.1660   -8.5830 O         1 <0>         0.0000
  23566 WAT       -34.9320  -70.1660   -8.3330 O         1 <0>         0.0000
  23567 WAT       -34.9320  -70.1660   -8.0830 O         1 <0>         0.0000
  23568 WAT       -34.9320  -70.1660   -7.8330 O         1 <0>         0.0002
  23569 WAT       -34.9320  -70.1660   -7.5830 O         1 <0>         0.0004
  23570 WAT       -34.9320  -70.1660   -7.3330 O         1 <0>         0.0006
  23571 WAT       -34.9320  -70.1660   -7.0830 O         1 <0>         0.0006
  23572 WAT       -34.9320  -70.1660   -6.8330 O         1 <0>         0.0003
  23573 WAT       -34.9320  -70.1660   -6.5830 O         1 <0>         0.0001
  23574 WAT       -34.9320  -70.1660   -6.3330 O         1 <0>         0.0000
  23575 WAT       -34.9320  -70.1660   -6.0830 O         1 <0>         0.0000
  23576 WAT       -34.9320  -70.1660   -5.8330 O         1 <0>         0.0000
  23577 WAT       -34.9320  -70.1660   -5.5830 O         1 <0>         0.0000
  23578 WAT       -34.9320  -70.1660   -5.3330 O         1 <0>         0.0000
  23579 WAT       -34.9320  -70.1660   -5.0830 O         1 <0>         0.0000
  23580 WAT       -34.9320  -70.1660   -4.8330 O         1 <0>         0.0000
  23581 WAT       -34.9320  -70.1660   -4.5830 O         1 <0>         0.0000
  23582 WAT       -34.9320  -70.1660   -4.3330 O         1 <0>         0.0000
  23583 WAT       -34.9320  -70.1660   -4.0830 O         1 <0>         0.0000
  23584 WAT       -34.9320  -70.1660   -3.8330 O         1 <0>         0.0000
  23585 WAT       -34.9320  -70.1660   -3.5830 O         1 <0>         0.0000
  23586 WAT       -34.9320  -70.1660   -3.3330 O         1 <0>         0.0000
  23587 WAT       -34.9320  -70.1660   -3.0830 O         1 <0>         0.0000
  23588 WAT       -34.9320  -70.1660   -2.8330 O         1 <0>         0.0000
  23589 WAT       -34.9320  -70.1660   -2.5830 O         1 <0>         0.0000
  23590 WAT       -34.9320  -70.1660   -2.3330 O         1 <0>         0.0000
  23591 WAT       -34.9320  -70.1660   -2.0830 O         1 <0>         0.0000
  23592 WAT       -34.9320  -70.1660   -1.8330 O         1 <0>         0.0000
  23593 WAT       -34.9320  -70.1660   -1.5830 O         1 <0>         0.0000
  23594 WAT       -34.9320  -70.1660   -1.3330 O         1 <0>         0.0000
  23595 WAT       -34.9320  -70.1660   -1.0830 O         1 <0>         0.0000
  23596 WAT       -34.9320  -70.1660   -0.8330 O         1 <0>         0.0000
  23597 WAT       -34.9320  -70.1660   -0.5830 O         1 <0>         0.0000
  23598 WAT       -34.9320  -70.1660   -0.3330 O         1 <0>         0.0000
  23599 WAT       -34.9320  -70.1660   -0.0830 O         1 <0>         0.0000
  23600 WAT       -34.9320  -69.9160   -9.8330 O         1 <0>         0.0000
  23601 WAT       -34.9320  -69.9160   -9.5830 O         1 <0>         0.0000
  23602 WAT       -34.9320  -69.9160   -9.3330 O         1 <0>         0.0000
  23603 WAT       -34.9320  -69.9160   -9.0830 O         1 <0>         0.0000
  23604 WAT       -34.9320  -69.9160   -8.8330 O         1 <0>         0.0000
  23605 WAT       -34.9320  -69.9160   -8.5830 O         1 <0>         0.0000
  23606 WAT       -34.9320  -69.9160   -8.3330 O         1 <0>         0.0000
  23607 WAT       -34.9320  -69.9160   -8.0830 O         1 <0>         0.0000
  23608 WAT       -34.9320  -69.9160   -7.8330 O         1 <0>         0.0000
  23609 WAT       -34.9320  -69.9160   -7.5830 O         1 <0>         0.0000
  23610 WAT       -34.9320  -69.9160   -7.3330 O         1 <0>         0.0001
  23611 WAT       -34.9320  -69.9160   -7.0830 O         1 <0>         0.0001
  23612 WAT       -34.9320  -69.9160   -6.8330 O         1 <0>         0.0000
  23613 WAT       -34.9320  -69.9160   -6.5830 O         1 <0>         0.0000
  23614 WAT       -34.9320  -69.9160   -6.3330 O         1 <0>         0.0000
  23615 WAT       -34.9320  -69.9160   -6.0830 O         1 <0>         0.0000
  23616 WAT       -34.9320  -69.9160   -5.8330 O         1 <0>         0.0000
  23617 WAT       -34.9320  -69.9160   -5.5830 O         1 <0>         0.0000
  23618 WAT       -34.9320  -69.9160   -5.3330 O         1 <0>         0.0000
  23619 WAT       -34.9320  -69.9160   -5.0830 O         1 <0>         0.0000
  23620 WAT       -34.9320  -69.9160   -4.8330 O         1 <0>         0.0000
  23621 WAT       -34.9320  -69.9160   -4.5830 O         1 <0>         0.0000
  23622 WAT       -34.9320  -69.9160   -4.3330 O         1 <0>         0.0000
  23623 WAT       -34.9320  -69.9160   -4.0830 O         1 <0>         0.0000
  23624 WAT       -34.9320  -69.9160   -3.8330 O         1 <0>         0.0000
  23625 WAT       -34.9320  -69.9160   -3.5830 O         1 <0>         0.0000
  23626 WAT       -34.9320  -69.9160   -3.3330 O         1 <0>         0.0000
  23627 WAT       -34.9320  -69.9160   -3.0830 O         1 <0>         0.0000
  23628 WAT       -34.9320  -69.9160   -2.8330 O         1 <0>         0.0000
  23629 WAT       -34.9320  -69.9160   -2.5830 O         1 <0>         0.0000
  23630 WAT       -34.9320  -69.9160   -2.3330 O         1 <0>         0.0000
  23631 WAT       -34.9320  -69.9160   -2.0830 O         1 <0>         0.0000
  23632 WAT       -34.9320  -69.9160   -1.8330 O         1 <0>         0.0000
  23633 WAT       -34.9320  -69.9160   -1.5830 O         1 <0>         0.0000
  23634 WAT       -34.9320  -69.9160   -1.3330 O         1 <0>         0.0000
  23635 WAT       -34.9320  -69.9160   -1.0830 O         1 <0>         0.0000
  23636 WAT       -34.9320  -69.9160   -0.8330 O         1 <0>         0.0000
  23637 WAT       -34.9320  -69.9160   -0.5830 O         1 <0>         0.0000
  23638 WAT       -34.9320  -69.9160   -0.3330 O         1 <0>         0.0000
  23639 WAT       -34.9320  -69.9160   -0.0830 O         1 <0>         0.0000
  23640 WAT       -34.9320  -69.6660   -9.8330 O         1 <0>         0.0000
  23641 WAT       -34.9320  -69.6660   -9.5830 O         1 <0>         0.0000
  23642 WAT       -34.9320  -69.6660   -9.3330 O         1 <0>         0.0000
  23643 WAT       -34.9320  -69.6660   -9.0830 O         1 <0>         0.0000
  23644 WAT       -34.9320  -69.6660   -8.8330 O         1 <0>         0.0000
  23645 WAT       -34.9320  -69.6660   -8.5830 O         1 <0>         0.0000
  23646 WAT       -34.9320  -69.6660   -8.3330 O         1 <0>         0.0000
  23647 WAT       -34.9320  -69.6660   -8.0830 O         1 <0>         0.0000
  23648 WAT       -34.9320  -69.6660   -7.8330 O         1 <0>         0.0000
  23649 WAT       -34.9320  -69.6660   -7.5830 O         1 <0>         0.0000
  23650 WAT       -34.9320  -69.6660   -7.3330 O         1 <0>         0.0000
  23651 WAT       -34.9320  -69.6660   -7.0830 O         1 <0>         0.0000
  23652 WAT       -34.9320  -69.6660   -6.8330 O         1 <0>         0.0000
  23653 WAT       -34.9320  -69.6660   -6.5830 O         1 <0>         0.0000
  23654 WAT       -34.9320  -69.6660   -6.3330 O         1 <0>         0.0000
  23655 WAT       -34.9320  -69.6660   -6.0830 O         1 <0>         0.0000
  23656 WAT       -34.9320  -69.6660   -5.8330 O         1 <0>         0.0000
  23657 WAT       -34.9320  -69.6660   -5.5830 O         1 <0>         0.0000
  23658 WAT       -34.9320  -69.6660   -5.3330 O         1 <0>         0.0000
  23659 WAT       -34.9320  -69.6660   -5.0830 O         1 <0>         0.0000
  23660 WAT       -34.9320  -69.6660   -4.8330 O         1 <0>         0.0000
  23661 WAT       -34.9320  -69.6660   -4.5830 O         1 <0>         0.0000
  23662 WAT       -34.9320  -69.6660   -4.3330 O         1 <0>         0.0000
  23663 WAT       -34.9320  -69.6660   -4.0830 O         1 <0>         0.0000
  23664 WAT       -34.9320  -69.6660   -3.8330 O         1 <0>         0.0000
  23665 WAT       -34.9320  -69.6660   -3.5830 O         1 <0>         0.0000
  23666 WAT       -34.9320  -69.6660   -3.3330 O         1 <0>         0.0000
  23667 WAT       -34.9320  -69.6660   -3.0830 O         1 <0>         0.0000
  23668 WAT       -34.9320  -69.6660   -2.8330 O         1 <0>         0.0000
  23669 WAT       -34.9320  -69.6660   -2.5830 O         1 <0>         0.0000
  23670 WAT       -34.9320  -69.6660   -2.3330 O         1 <0>         0.0000
  23671 WAT       -34.9320  -69.6660   -2.0830 O         1 <0>         0.0000
  23672 WAT       -34.9320  -69.6660   -1.8330 O         1 <0>         0.0000
  23673 WAT       -34.9320  -69.6660   -1.5830 O         1 <0>         0.0000
  23674 WAT       -34.9320  -69.6660   -1.3330 O         1 <0>         0.0000
  23675 WAT       -34.9320  -69.6660   -1.0830 O         1 <0>         0.0000
  23676 WAT       -34.9320  -69.6660   -0.8330 O         1 <0>         0.0000
  23677 WAT       -34.9320  -69.6660   -0.5830 O         1 <0>         0.0000
  23678 WAT       -34.9320  -69.6660   -0.3330 O         1 <0>         0.0000
  23679 WAT       -34.9320  -69.6660   -0.0830 O         1 <0>         0.0000
  23680 WAT       -34.9320  -69.4160   -9.8330 O         1 <0>         0.0000
  23681 WAT       -34.9320  -69.4160   -9.5830 O         1 <0>         0.0000
  23682 WAT       -34.9320  -69.4160   -9.3330 O         1 <0>         0.0000
  23683 WAT       -34.9320  -69.4160   -9.0830 O         1 <0>         0.0000
  23684 WAT       -34.9320  -69.4160   -8.8330 O         1 <0>         0.0000
  23685 WAT       -34.9320  -69.4160   -8.5830 O         1 <0>         0.0000
  23686 WAT       -34.9320  -69.4160   -8.3330 O         1 <0>         0.0000
  23687 WAT       -34.9320  -69.4160   -8.0830 O         1 <0>         0.0000
  23688 WAT       -34.9320  -69.4160   -7.8330 O         1 <0>         0.0000
  23689 WAT       -34.9320  -69.4160   -7.5830 O         1 <0>         0.0000
  23690 WAT       -34.9320  -69.4160   -7.3330 O         1 <0>         0.0000
  23691 WAT       -34.9320  -69.4160   -7.0830 O         1 <0>         0.0000
  23692 WAT       -34.9320  -69.4160   -6.8330 O         1 <0>         0.0000
  23693 WAT       -34.9320  -69.4160   -6.5830 O         1 <0>         0.0000
  23694 WAT       -34.9320  -69.4160   -6.3330 O         1 <0>         0.0000
  23695 WAT       -34.9320  -69.4160   -6.0830 O         1 <0>         0.0000
  23696 WAT       -34.9320  -69.4160   -5.8330 O         1 <0>         0.0000
  23697 WAT       -34.9320  -69.4160   -5.5830 O         1 <0>         0.0000
  23698 WAT       -34.9320  -69.4160   -5.3330 O         1 <0>         0.0000
  23699 WAT       -34.9320  -69.4160   -5.0830 O         1 <0>         0.0000
  23700 WAT       -34.9320  -69.4160   -4.8330 O         1 <0>         0.0000
  23701 WAT       -34.9320  -69.4160   -4.5830 O         1 <0>         0.0000
  23702 WAT       -34.9320  -69.4160   -4.3330 O         1 <0>         0.0000
  23703 WAT       -34.9320  -69.4160   -4.0830 O         1 <0>         0.0000
  23704 WAT       -34.9320  -69.4160   -3.8330 O         1 <0>         0.0000
  23705 WAT       -34.9320  -69.4160   -3.5830 O         1 <0>         0.0000
  23706 WAT       -34.9320  -69.4160   -3.3330 O         1 <0>         0.0000
  23707 WAT       -34.9320  -69.4160   -3.0830 O         1 <0>         0.0000
  23708 WAT       -34.9320  -69.4160   -2.8330 O         1 <0>         0.0000
  23709 WAT       -34.9320  -69.4160   -2.5830 O         1 <0>         0.0000
  23710 WAT       -34.9320  -69.4160   -2.3330 O         1 <0>         0.0000
  23711 WAT       -34.9320  -69.4160   -2.0830 O         1 <0>         0.0000
  23712 WAT       -34.9320  -69.4160   -1.8330 O         1 <0>         0.0000
  23713 WAT       -34.9320  -69.4160   -1.5830 O         1 <0>         0.0000
  23714 WAT       -34.9320  -69.4160   -1.3330 O         1 <0>         0.0000
  23715 WAT       -34.9320  -69.4160   -1.0830 O         1 <0>         0.0000
  23716 WAT       -34.9320  -69.4160   -0.8330 O         1 <0>         0.0000
  23717 WAT       -34.9320  -69.4160   -0.5830 O         1 <0>         0.0000
  23718 WAT       -34.9320  -69.4160   -0.3330 O         1 <0>         0.0000
  23719 WAT       -34.9320  -69.4160   -0.0830 O         1 <0>         0.0000
  23720 WAT       -34.9320  -69.1660   -9.8330 O         1 <0>         0.0000
  23721 WAT       -34.9320  -69.1660   -9.5830 O         1 <0>         0.0000
  23722 WAT       -34.9320  -69.1660   -9.3330 O         1 <0>         0.0000
  23723 WAT       -34.9320  -69.1660   -9.0830 O         1 <0>         0.0000
  23724 WAT       -34.9320  -69.1660   -8.8330 O         1 <0>         0.0000
  23725 WAT       -34.9320  -69.1660   -8.5830 O         1 <0>         0.0000
  23726 WAT       -34.9320  -69.1660   -8.3330 O         1 <0>         0.0000
  23727 WAT       -34.9320  -69.1660   -8.0830 O         1 <0>         0.0000
  23728 WAT       -34.9320  -69.1660   -7.8330 O         1 <0>         0.0000
  23729 WAT       -34.9320  -69.1660   -7.5830 O         1 <0>         0.0000
  23730 WAT       -34.9320  -69.1660   -7.3330 O         1 <0>         0.0000
  23731 WAT       -34.9320  -69.1660   -7.0830 O         1 <0>         0.0000
  23732 WAT       -34.9320  -69.1660   -6.8330 O         1 <0>         0.0000
  23733 WAT       -34.9320  -69.1660   -6.5830 O         1 <0>         0.0000
  23734 WAT       -34.9320  -69.1660   -6.3330 O         1 <0>         0.0000
  23735 WAT       -34.9320  -69.1660   -6.0830 O         1 <0>         0.0000
  23736 WAT       -34.9320  -69.1660   -5.8330 O         1 <0>         0.0000
  23737 WAT       -34.9320  -69.1660   -5.5830 O         1 <0>         0.0000
  23738 WAT       -34.9320  -69.1660   -5.3330 O         1 <0>         0.0000
  23739 WAT       -34.9320  -69.1660   -5.0830 O         1 <0>         0.0000
  23740 WAT       -34.9320  -69.1660   -4.8330 O         1 <0>         0.0000
  23741 WAT       -34.9320  -69.1660   -4.5830 O         1 <0>         0.0000
  23742 WAT       -34.9320  -69.1660   -4.3330 O         1 <0>         0.0000
  23743 WAT       -34.9320  -69.1660   -4.0830 O         1 <0>         0.0000
  23744 WAT       -34.9320  -69.1660   -3.8330 O         1 <0>         0.0000
  23745 WAT       -34.9320  -69.1660   -3.5830 O         1 <0>         0.0000
  23746 WAT       -34.9320  -69.1660   -3.3330 O         1 <0>         0.0000
  23747 WAT       -34.9320  -69.1660   -3.0830 O         1 <0>         0.0000
  23748 WAT       -34.9320  -69.1660   -2.8330 O         1 <0>         0.0000
  23749 WAT       -34.9320  -69.1660   -2.5830 O         1 <0>         0.0000
  23750 WAT       -34.9320  -69.1660   -2.3330 O         1 <0>         0.0000
  23751 WAT       -34.9320  -69.1660   -2.0830 O         1 <0>         0.0000
  23752 WAT       -34.9320  -69.1660   -1.8330 O         1 <0>         0.0000
  23753 WAT       -34.9320  -69.1660   -1.5830 O         1 <0>         0.0000
  23754 WAT       -34.9320  -69.1660   -1.3330 O         1 <0>         0.0000
  23755 WAT       -34.9320  -69.1660   -1.0830 O         1 <0>         0.0000
  23756 WAT       -34.9320  -69.1660   -0.8330 O         1 <0>         0.0000
  23757 WAT       -34.9320  -69.1660   -0.5830 O         1 <0>         0.0000
  23758 WAT       -34.9320  -69.1660   -0.3330 O         1 <0>         0.0000
  23759 WAT       -34.9320  -69.1660   -0.0830 O         1 <0>         0.0000
  23760 WAT       -34.9320  -68.9160   -9.8330 O         1 <0>         0.0000
  23761 WAT       -34.9320  -68.9160   -9.5830 O         1 <0>         0.0000
  23762 WAT       -34.9320  -68.9160   -9.3330 O         1 <0>         0.0000
  23763 WAT       -34.9320  -68.9160   -9.0830 O         1 <0>         0.0000
  23764 WAT       -34.9320  -68.9160   -8.8330 O         1 <0>         0.0000
  23765 WAT       -34.9320  -68.9160   -8.5830 O         1 <0>         0.0000
  23766 WAT       -34.9320  -68.9160   -8.3330 O         1 <0>         0.0000
  23767 WAT       -34.9320  -68.9160   -8.0830 O         1 <0>         0.0000
  23768 WAT       -34.9320  -68.9160   -7.8330 O         1 <0>         0.0000
  23769 WAT       -34.9320  -68.9160   -7.5830 O         1 <0>         0.0000
  23770 WAT       -34.9320  -68.9160   -7.3330 O         1 <0>         0.0000
  23771 WAT       -34.9320  -68.9160   -7.0830 O         1 <0>         0.0000
  23772 WAT       -34.9320  -68.9160   -6.8330 O         1 <0>         0.0000
  23773 WAT       -34.9320  -68.9160   -6.5830 O         1 <0>         0.0000
  23774 WAT       -34.9320  -68.9160   -6.3330 O         1 <0>         0.0000
  23775 WAT       -34.9320  -68.9160   -6.0830 O         1 <0>         0.0000
  23776 WAT       -34.9320  -68.9160   -5.8330 O         1 <0>         0.0000
  23777 WAT       -34.9320  -68.9160   -5.5830 O         1 <0>         0.0000
  23778 WAT       -34.9320  -68.9160   -5.3330 O         1 <0>         0.0000
  23779 WAT       -34.9320  -68.9160   -5.0830 O         1 <0>         0.0000
  23780 WAT       -34.9320  -68.9160   -4.8330 O         1 <0>         0.0000
  23781 WAT       -34.9320  -68.9160   -4.5830 O         1 <0>         0.0000
  23782 WAT       -34.9320  -68.9160   -4.3330 O         1 <0>         0.0000
  23783 WAT       -34.9320  -68.9160   -4.0830 O         1 <0>         0.0000
  23784 WAT       -34.9320  -68.9160   -3.8330 O         1 <0>         0.0000
  23785 WAT       -34.9320  -68.9160   -3.5830 O         1 <0>         0.0000
  23786 WAT       -34.9320  -68.9160   -3.3330 O         1 <0>         0.0000
  23787 WAT       -34.9320  -68.9160   -3.0830 O         1 <0>         0.0000
  23788 WAT       -34.9320  -68.9160   -2.8330 O         1 <0>         0.0000
  23789 WAT       -34.9320  -68.9160   -2.5830 O         1 <0>         0.0000
  23790 WAT       -34.9320  -68.9160   -2.3330 O         1 <0>         0.0000
  23791 WAT       -34.9320  -68.9160   -2.0830 O         1 <0>         0.0000
  23792 WAT       -34.9320  -68.9160   -1.8330 O         1 <0>         0.0000
  23793 WAT       -34.9320  -68.9160   -1.5830 O         1 <0>         0.0000
  23794 WAT       -34.9320  -68.9160   -1.3330 O         1 <0>         0.0000
  23795 WAT       -34.9320  -68.9160   -1.0830 O         1 <0>         0.0000
  23796 WAT       -34.9320  -68.9160   -0.8330 O         1 <0>         0.0000
  23797 WAT       -34.9320  -68.9160   -0.5830 O         1 <0>         0.0000
  23798 WAT       -34.9320  -68.9160   -0.3330 O         1 <0>         0.0000
  23799 WAT       -34.9320  -68.9160   -0.0830 O         1 <0>         0.0000
  23800 WAT       -34.6820  -77.4160   -9.8330 O         1 <0>         0.0000
  23801 WAT       -34.6820  -77.4160   -9.5830 O         1 <0>         0.0000
  23802 WAT       -34.6820  -77.4160   -9.3330 O         1 <0>         0.0000
  23803 WAT       -34.6820  -77.4160   -9.0830 O         1 <0>         0.0000
  23804 WAT       -34.6820  -77.4160   -8.8330 O         1 <0>         0.0000
  23805 WAT       -34.6820  -77.4160   -8.5830 O         1 <0>         0.0000
  23806 WAT       -34.6820  -77.4160   -8.3330 O         1 <0>         0.0000
  23807 WAT       -34.6820  -77.4160   -8.0830 O         1 <0>         0.0000
  23808 WAT       -34.6820  -77.4160   -7.8330 O         1 <0>         0.0000
  23809 WAT       -34.6820  -77.4160   -7.5830 O         1 <0>         0.0000
  23810 WAT       -34.6820  -77.4160   -7.3330 O         1 <0>         0.0000
  23811 WAT       -34.6820  -77.4160   -7.0830 O         1 <0>         0.0000
  23812 WAT       -34.6820  -77.4160   -6.8330 O         1 <0>         0.0000
  23813 WAT       -34.6820  -77.4160   -6.5830 O         1 <0>         0.0000
  23814 WAT       -34.6820  -77.4160   -6.3330 O         1 <0>         0.0000
  23815 WAT       -34.6820  -77.4160   -6.0830 O         1 <0>         0.0000
  23816 WAT       -34.6820  -77.4160   -5.8330 O         1 <0>         0.0000
  23817 WAT       -34.6820  -77.4160   -5.5830 O         1 <0>         0.0000
  23818 WAT       -34.6820  -77.4160   -5.3330 O         1 <0>         0.0000
  23819 WAT       -34.6820  -77.4160   -5.0830 O         1 <0>         0.0000
  23820 WAT       -34.6820  -77.4160   -4.8330 O         1 <0>         0.0000
  23821 WAT       -34.6820  -77.4160   -4.5830 O         1 <0>         0.0000
  23822 WAT       -34.6820  -77.4160   -4.3330 O         1 <0>         0.0000
  23823 WAT       -34.6820  -77.4160   -4.0830 O         1 <0>         0.0000
  23824 WAT       -34.6820  -77.4160   -3.8330 O         1 <0>         0.0000
  23825 WAT       -34.6820  -77.4160   -3.5830 O         1 <0>         0.0000
  23826 WAT       -34.6820  -77.4160   -3.3330 O         1 <0>         0.0000
  23827 WAT       -34.6820  -77.4160   -3.0830 O         1 <0>         0.0000
  23828 WAT       -34.6820  -77.4160   -2.8330 O         1 <0>         0.0000
  23829 WAT       -34.6820  -77.4160   -2.5830 O         1 <0>         0.0000
  23830 WAT       -34.6820  -77.4160   -2.3330 O         1 <0>         0.0000
  23831 WAT       -34.6820  -77.4160   -2.0830 O         1 <0>         0.0000
  23832 WAT       -34.6820  -77.4160   -1.8330 O         1 <0>         0.0000
  23833 WAT       -34.6820  -77.4160   -1.5830 O         1 <0>         0.0000
  23834 WAT       -34.6820  -77.4160   -1.3330 O         1 <0>         0.0000
  23835 WAT       -34.6820  -77.4160   -1.0830 O         1 <0>         0.0000
  23836 WAT       -34.6820  -77.4160   -0.8330 O         1 <0>         0.0000
  23837 WAT       -34.6820  -77.4160   -0.5830 O         1 <0>         0.0000
  23838 WAT       -34.6820  -77.4160   -0.3330 O         1 <0>         0.0000
  23839 WAT       -34.6820  -77.4160   -0.0830 O         1 <0>         0.0000
  23840 WAT       -34.6820  -77.1660   -9.8330 O         1 <0>         0.0000
  23841 WAT       -34.6820  -77.1660   -9.5830 O         1 <0>         0.0000
  23842 WAT       -34.6820  -77.1660   -9.3330 O         1 <0>         0.0000
  23843 WAT       -34.6820  -77.1660   -9.0830 O         1 <0>         0.0000
  23844 WAT       -34.6820  -77.1660   -8.8330 O         1 <0>         0.0000
  23845 WAT       -34.6820  -77.1660   -8.5830 O         1 <0>         0.0000
  23846 WAT       -34.6820  -77.1660   -8.3330 O         1 <0>         0.0000
  23847 WAT       -34.6820  -77.1660   -8.0830 O         1 <0>         0.0000
  23848 WAT       -34.6820  -77.1660   -7.8330 O         1 <0>         0.0000
  23849 WAT       -34.6820  -77.1660   -7.5830 O         1 <0>         0.0000
  23850 WAT       -34.6820  -77.1660   -7.3330 O         1 <0>         0.0000
  23851 WAT       -34.6820  -77.1660   -7.0830 O         1 <0>         0.0000
  23852 WAT       -34.6820  -77.1660   -6.8330 O         1 <0>         0.0000
  23853 WAT       -34.6820  -77.1660   -6.5830 O         1 <0>         0.0000
  23854 WAT       -34.6820  -77.1660   -6.3330 O         1 <0>         0.0000
  23855 WAT       -34.6820  -77.1660   -6.0830 O         1 <0>         0.0000
  23856 WAT       -34.6820  -77.1660   -5.8330 O         1 <0>         0.0000
  23857 WAT       -34.6820  -77.1660   -5.5830 O         1 <0>         0.0000
  23858 WAT       -34.6820  -77.1660   -5.3330 O         1 <0>         0.0000
  23859 WAT       -34.6820  -77.1660   -5.0830 O         1 <0>         0.0000
  23860 WAT       -34.6820  -77.1660   -4.8330 O         1 <0>         0.0000
  23861 WAT       -34.6820  -77.1660   -4.5830 O         1 <0>         0.0000
  23862 WAT       -34.6820  -77.1660   -4.3330 O         1 <0>         0.0000
  23863 WAT       -34.6820  -77.1660   -4.0830 O         1 <0>         0.0000
  23864 WAT       -34.6820  -77.1660   -3.8330 O         1 <0>         0.0000
  23865 WAT       -34.6820  -77.1660   -3.5830 O         1 <0>         0.0000
  23866 WAT       -34.6820  -77.1660   -3.3330 O         1 <0>         0.0000
  23867 WAT       -34.6820  -77.1660   -3.0830 O         1 <0>         0.0000
  23868 WAT       -34.6820  -77.1660   -2.8330 O         1 <0>         0.0000
  23869 WAT       -34.6820  -77.1660   -2.5830 O         1 <0>         0.0000
  23870 WAT       -34.6820  -77.1660   -2.3330 O         1 <0>         0.0000
  23871 WAT       -34.6820  -77.1660   -2.0830 O         1 <0>         0.0000
  23872 WAT       -34.6820  -77.1660   -1.8330 O         1 <0>         0.0000
  23873 WAT       -34.6820  -77.1660   -1.5830 O         1 <0>         0.0000
  23874 WAT       -34.6820  -77.1660   -1.3330 O         1 <0>         0.0000
  23875 WAT       -34.6820  -77.1660   -1.0830 O         1 <0>         0.0000
  23876 WAT       -34.6820  -77.1660   -0.8330 O         1 <0>         0.0000
  23877 WAT       -34.6820  -77.1660   -0.5830 O         1 <0>         0.0000
  23878 WAT       -34.6820  -77.1660   -0.3330 O         1 <0>         0.0000
  23879 WAT       -34.6820  -77.1660   -0.0830 O         1 <0>         0.0000
  23880 WAT       -34.6820  -76.9160   -9.8330 O         1 <0>         0.0000
  23881 WAT       -34.6820  -76.9160   -9.5830 O         1 <0>         0.0000
  23882 WAT       -34.6820  -76.9160   -9.3330 O         1 <0>         0.0000
  23883 WAT       -34.6820  -76.9160   -9.0830 O         1 <0>         0.0000
  23884 WAT       -34.6820  -76.9160   -8.8330 O         1 <0>         0.0000
  23885 WAT       -34.6820  -76.9160   -8.5830 O         1 <0>         0.0000
  23886 WAT       -34.6820  -76.9160   -8.3330 O         1 <0>         0.0000
  23887 WAT       -34.6820  -76.9160   -8.0830 O         1 <0>         0.0000
  23888 WAT       -34.6820  -76.9160   -7.8330 O         1 <0>         0.0000
  23889 WAT       -34.6820  -76.9160   -7.5830 O         1 <0>         0.0000
  23890 WAT       -34.6820  -76.9160   -7.3330 O         1 <0>         0.0000
  23891 WAT       -34.6820  -76.9160   -7.0830 O         1 <0>         0.0000
  23892 WAT       -34.6820  -76.9160   -6.8330 O         1 <0>         0.0000
  23893 WAT       -34.6820  -76.9160   -6.5830 O         1 <0>         0.0000
  23894 WAT       -34.6820  -76.9160   -6.3330 O         1 <0>         0.0000
  23895 WAT       -34.6820  -76.9160   -6.0830 O         1 <0>         0.0000
  23896 WAT       -34.6820  -76.9160   -5.8330 O         1 <0>         0.0000
  23897 WAT       -34.6820  -76.9160   -5.5830 O         1 <0>         0.0000
  23898 WAT       -34.6820  -76.9160   -5.3330 O         1 <0>         0.0000
  23899 WAT       -34.6820  -76.9160   -5.0830 O         1 <0>         0.0000
  23900 WAT       -34.6820  -76.9160   -4.8330 O         1 <0>         0.0000
  23901 WAT       -34.6820  -76.9160   -4.5830 O         1 <0>         0.0000
  23902 WAT       -34.6820  -76.9160   -4.3330 O         1 <0>         0.0000
  23903 WAT       -34.6820  -76.9160   -4.0830 O         1 <0>         0.0000
  23904 WAT       -34.6820  -76.9160   -3.8330 O         1 <0>         0.0000
  23905 WAT       -34.6820  -76.9160   -3.5830 O         1 <0>         0.0000
  23906 WAT       -34.6820  -76.9160   -3.3330 O         1 <0>         0.0000
  23907 WAT       -34.6820  -76.9160   -3.0830 O         1 <0>         0.0000
  23908 WAT       -34.6820  -76.9160   -2.8330 O         1 <0>         0.0000
  23909 WAT       -34.6820  -76.9160   -2.5830 O         1 <0>         0.0000
  23910 WAT       -34.6820  -76.9160   -2.3330 O         1 <0>         0.0000
  23911 WAT       -34.6820  -76.9160   -2.0830 O         1 <0>         0.0000
  23912 WAT       -34.6820  -76.9160   -1.8330 O         1 <0>         0.0000
  23913 WAT       -34.6820  -76.9160   -1.5830 O         1 <0>         0.0000
  23914 WAT       -34.6820  -76.9160   -1.3330 O         1 <0>         0.0000
  23915 WAT       -34.6820  -76.9160   -1.0830 O         1 <0>         0.0000
  23916 WAT       -34.6820  -76.9160   -0.8330 O         1 <0>         0.0000
  23917 WAT       -34.6820  -76.9160   -0.5830 O         1 <0>         0.0000
  23918 WAT       -34.6820  -76.9160   -0.3330 O         1 <0>         0.0000
  23919 WAT       -34.6820  -76.9160   -0.0830 O         1 <0>         0.0000
  23920 WAT       -34.6820  -76.6660   -9.8330 O         1 <0>         0.0000
  23921 WAT       -34.6820  -76.6660   -9.5830 O         1 <0>         0.0000
  23922 WAT       -34.6820  -76.6660   -9.3330 O         1 <0>         0.0000
  23923 WAT       -34.6820  -76.6660   -9.0830 O         1 <0>         0.0000
  23924 WAT       -34.6820  -76.6660   -8.8330 O         1 <0>         0.0000
  23925 WAT       -34.6820  -76.6660   -8.5830 O         1 <0>         0.0000
  23926 WAT       -34.6820  -76.6660   -8.3330 O         1 <0>         0.0000
  23927 WAT       -34.6820  -76.6660   -8.0830 O         1 <0>         0.0000
  23928 WAT       -34.6820  -76.6660   -7.8330 O         1 <0>         0.0000
  23929 WAT       -34.6820  -76.6660   -7.5830 O         1 <0>         0.0000
  23930 WAT       -34.6820  -76.6660   -7.3330 O         1 <0>         0.0000
  23931 WAT       -34.6820  -76.6660   -7.0830 O         1 <0>         0.0000
  23932 WAT       -34.6820  -76.6660   -6.8330 O         1 <0>         0.0000
  23933 WAT       -34.6820  -76.6660   -6.5830 O         1 <0>         0.0000
  23934 WAT       -34.6820  -76.6660   -6.3330 O         1 <0>         0.0000
  23935 WAT       -34.6820  -76.6660   -6.0830 O         1 <0>         0.0000
  23936 WAT       -34.6820  -76.6660   -5.8330 O         1 <0>         0.0000
  23937 WAT       -34.6820  -76.6660   -5.5830 O         1 <0>         0.0000
  23938 WAT       -34.6820  -76.6660   -5.3330 O         1 <0>         0.0000
  23939 WAT       -34.6820  -76.6660   -5.0830 O         1 <0>         0.0000
  23940 WAT       -34.6820  -76.6660   -4.8330 O         1 <0>         0.0000
  23941 WAT       -34.6820  -76.6660   -4.5830 O         1 <0>         0.0000
  23942 WAT       -34.6820  -76.6660   -4.3330 O         1 <0>         0.0000
  23943 WAT       -34.6820  -76.6660   -4.0830 O         1 <0>         0.0000
  23944 WAT       -34.6820  -76.6660   -3.8330 O         1 <0>         0.0000
  23945 WAT       -34.6820  -76.6660   -3.5830 O         1 <0>         0.0000
  23946 WAT       -34.6820  -76.6660   -3.3330 O         1 <0>         0.0001
  23947 WAT       -34.6820  -76.6660   -3.0830 O         1 <0>         0.0001
  23948 WAT       -34.6820  -76.6660   -2.8330 O         1 <0>         0.0000
  23949 WAT       -34.6820  -76.6660   -2.5830 O         1 <0>         0.0000
  23950 WAT       -34.6820  -76.6660   -2.3330 O         1 <0>         0.0000
  23951 WAT       -34.6820  -76.6660   -2.0830 O         1 <0>         0.0000
  23952 WAT       -34.6820  -76.6660   -1.8330 O         1 <0>         0.0000
  23953 WAT       -34.6820  -76.6660   -1.5830 O         1 <0>         0.0000
  23954 WAT       -34.6820  -76.6660   -1.3330 O         1 <0>         0.0000
  23955 WAT       -34.6820  -76.6660   -1.0830 O         1 <0>         0.0000
  23956 WAT       -34.6820  -76.6660   -0.8330 O         1 <0>         0.0000
  23957 WAT       -34.6820  -76.6660   -0.5830 O         1 <0>         0.0000
  23958 WAT       -34.6820  -76.6660   -0.3330 O         1 <0>         0.0000
  23959 WAT       -34.6820  -76.6660   -0.0830 O         1 <0>         0.0000
  23960 WAT       -34.6820  -76.4160   -9.8330 O         1 <0>         0.0000
  23961 WAT       -34.6820  -76.4160   -9.5830 O         1 <0>         0.0000
  23962 WAT       -34.6820  -76.4160   -9.3330 O         1 <0>         0.0000
  23963 WAT       -34.6820  -76.4160   -9.0830 O         1 <0>         0.0000
  23964 WAT       -34.6820  -76.4160   -8.8330 O         1 <0>         0.0000
  23965 WAT       -34.6820  -76.4160   -8.5830 O         1 <0>         0.0000
  23966 WAT       -34.6820  -76.4160   -8.3330 O         1 <0>         0.0000
  23967 WAT       -34.6820  -76.4160   -8.0830 O         1 <0>         0.0000
  23968 WAT       -34.6820  -76.4160   -7.8330 O         1 <0>         0.0000
  23969 WAT       -34.6820  -76.4160   -7.5830 O         1 <0>         0.0000
  23970 WAT       -34.6820  -76.4160   -7.3330 O         1 <0>         0.0000
  23971 WAT       -34.6820  -76.4160   -7.0830 O         1 <0>         0.0000
  23972 WAT       -34.6820  -76.4160   -6.8330 O         1 <0>         0.0000
  23973 WAT       -34.6820  -76.4160   -6.5830 O         1 <0>         0.0000
  23974 WAT       -34.6820  -76.4160   -6.3330 O         1 <0>         0.0000
  23975 WAT       -34.6820  -76.4160   -6.0830 O         1 <0>         0.0000
  23976 WAT       -34.6820  -76.4160   -5.8330 O         1 <0>         0.0000
  23977 WAT       -34.6820  -76.4160   -5.5830 O         1 <0>         0.0000
  23978 WAT       -34.6820  -76.4160   -5.3330 O         1 <0>         0.0000
  23979 WAT       -34.6820  -76.4160   -5.0830 O         1 <0>         0.0000
  23980 WAT       -34.6820  -76.4160   -4.8330 O         1 <0>         0.0000
  23981 WAT       -34.6820  -76.4160   -4.5830 O         1 <0>         0.0000
  23982 WAT       -34.6820  -76.4160   -4.3330 O         1 <0>         0.0000
  23983 WAT       -34.6820  -76.4160   -4.0830 O         1 <0>         0.0000
  23984 WAT       -34.6820  -76.4160   -3.8330 O         1 <0>         0.0001
  23985 WAT       -34.6820  -76.4160   -3.5830 O         1 <0>         0.0004
  23986 WAT       -34.6820  -76.4160   -3.3330 O         1 <0>         0.0007
  23987 WAT       -34.6820  -76.4160   -3.0830 O         1 <0>         0.0007
  23988 WAT       -34.6820  -76.4160   -2.8330 O         1 <0>         0.0004
  23989 WAT       -34.6820  -76.4160   -2.5830 O         1 <0>         0.0001
  23990 WAT       -34.6820  -76.4160   -2.3330 O         1 <0>         0.0000
  23991 WAT       -34.6820  -76.4160   -2.0830 O         1 <0>         0.0000
  23992 WAT       -34.6820  -76.4160   -1.8330 O         1 <0>         0.0000
  23993 WAT       -34.6820  -76.4160   -1.5830 O         1 <0>         0.0000
  23994 WAT       -34.6820  -76.4160   -1.3330 O         1 <0>         0.0000
  23995 WAT       -34.6820  -76.4160   -1.0830 O         1 <0>         0.0000
  23996 WAT       -34.6820  -76.4160   -0.8330 O         1 <0>         0.0000
  23997 WAT       -34.6820  -76.4160   -0.5830 O         1 <0>         0.0000
  23998 WAT       -34.6820  -76.4160   -0.3330 O         1 <0>         0.0000
  23999 WAT       -34.6820  -76.4160   -0.0830 O         1 <0>         0.0000
  24000 WAT       -34.6820  -76.1660   -9.8330 O         1 <0>         0.0000
  24001 WAT       -34.6820  -76.1660   -9.5830 O         1 <0>         0.0000
  24002 WAT       -34.6820  -76.1660   -9.3330 O         1 <0>         0.0000
  24003 WAT       -34.6820  -76.1660   -9.0830 O         1 <0>         0.0000
  24004 WAT       -34.6820  -76.1660   -8.8330 O         1 <0>         0.0000
  24005 WAT       -34.6820  -76.1660   -8.5830 O         1 <0>         0.0000
  24006 WAT       -34.6820  -76.1660   -8.3330 O         1 <0>         0.0000
  24007 WAT       -34.6820  -76.1660   -8.0830 O         1 <0>         0.0000
  24008 WAT       -34.6820  -76.1660   -7.8330 O         1 <0>         0.0000
  24009 WAT       -34.6820  -76.1660   -7.5830 O         1 <0>         0.0000
  24010 WAT       -34.6820  -76.1660   -7.3330 O         1 <0>         0.0000
  24011 WAT       -34.6820  -76.1660   -7.0830 O         1 <0>         0.0000
  24012 WAT       -34.6820  -76.1660   -6.8330 O         1 <0>         0.0000
  24013 WAT       -34.6820  -76.1660   -6.5830 O         1 <0>         0.0000
  24014 WAT       -34.6820  -76.1660   -6.3330 O         1 <0>         0.0000
  24015 WAT       -34.6820  -76.1660   -6.0830 O         1 <0>         0.0000
  24016 WAT       -34.6820  -76.1660   -5.8330 O         1 <0>         0.0000
  24017 WAT       -34.6820  -76.1660   -5.5830 O         1 <0>         0.0000
  24018 WAT       -34.6820  -76.1660   -5.3330 O         1 <0>         0.0000
  24019 WAT       -34.6820  -76.1660   -5.0830 O         1 <0>         0.0000
  24020 WAT       -34.6820  -76.1660   -4.8330 O         1 <0>         0.0000
  24021 WAT       -34.6820  -76.1660   -4.5830 O         1 <0>         0.0000
  24022 WAT       -34.6820  -76.1660   -4.3330 O         1 <0>         0.0000
  24023 WAT       -34.6820  -76.1660   -4.0830 O         1 <0>         0.0002
  24024 WAT       -34.6820  -76.1660   -3.8330 O         1 <0>         0.0011
  24025 WAT       -34.6820  -76.1660   -3.5830 O         1 <0>         0.0026
  24026 WAT       -34.6820  -76.1660   -3.3330 O         1 <0>         0.0041
  24027 WAT       -34.6820  -76.1660   -3.0830 O         1 <0>         0.0040
  24028 WAT       -34.6820  -76.1660   -2.8330 O         1 <0>         0.0026
  24029 WAT       -34.6820  -76.1660   -2.5830 O         1 <0>         0.0011
  24030 WAT       -34.6820  -76.1660   -2.3330 O         1 <0>         0.0002
  24031 WAT       -34.6820  -76.1660   -2.0830 O         1 <0>         0.0000
  24032 WAT       -34.6820  -76.1660   -1.8330 O         1 <0>         0.0000
  24033 WAT       -34.6820  -76.1660   -1.5830 O         1 <0>         0.0000
  24034 WAT       -34.6820  -76.1660   -1.3330 O         1 <0>         0.0000
  24035 WAT       -34.6820  -76.1660   -1.0830 O         1 <0>         0.0000
  24036 WAT       -34.6820  -76.1660   -0.8330 O         1 <0>         0.0000
  24037 WAT       -34.6820  -76.1660   -0.5830 O         1 <0>         0.0000
  24038 WAT       -34.6820  -76.1660   -0.3330 O         1 <0>         0.0000
  24039 WAT       -34.6820  -76.1660   -0.0830 O         1 <0>         0.0000
  24040 WAT       -34.6820  -75.9160   -9.8330 O         1 <0>         0.0000
  24041 WAT       -34.6820  -75.9160   -9.5830 O         1 <0>         0.0000
  24042 WAT       -34.6820  -75.9160   -9.3330 O         1 <0>         0.0000
  24043 WAT       -34.6820  -75.9160   -9.0830 O         1 <0>         0.0000
  24044 WAT       -34.6820  -75.9160   -8.8330 O         1 <0>         0.0000
  24045 WAT       -34.6820  -75.9160   -8.5830 O         1 <0>         0.0000
  24046 WAT       -34.6820  -75.9160   -8.3330 O         1 <0>         0.0000
  24047 WAT       -34.6820  -75.9160   -8.0830 O         1 <0>         0.0000
  24048 WAT       -34.6820  -75.9160   -7.8330 O         1 <0>         0.0000
  24049 WAT       -34.6820  -75.9160   -7.5830 O         1 <0>         0.0000
  24050 WAT       -34.6820  -75.9160   -7.3330 O         1 <0>         0.0000
  24051 WAT       -34.6820  -75.9160   -7.0830 O         1 <0>         0.0000
  24052 WAT       -34.6820  -75.9160   -6.8330 O         1 <0>         0.0000
  24053 WAT       -34.6820  -75.9160   -6.5830 O         1 <0>         0.0000
  24054 WAT       -34.6820  -75.9160   -6.3330 O         1 <0>         0.0000
  24055 WAT       -34.6820  -75.9160   -6.0830 O         1 <0>         0.0000
  24056 WAT       -34.6820  -75.9160   -5.8330 O         1 <0>         0.0000
  24057 WAT       -34.6820  -75.9160   -5.5830 O         1 <0>         0.0000
  24058 WAT       -34.6820  -75.9160   -5.3330 O         1 <0>         0.0000
  24059 WAT       -34.6820  -75.9160   -5.0830 O         1 <0>         0.0000
  24060 WAT       -34.6820  -75.9160   -4.8330 O         1 <0>         0.0000
  24061 WAT       -34.6820  -75.9160   -4.5830 O         1 <0>         0.0000
  24062 WAT       -34.6820  -75.9160   -4.3330 O         1 <0>         0.0002
  24063 WAT       -34.6820  -75.9160   -4.0830 O         1 <0>         0.0014
  24064 WAT       -34.6820  -75.9160   -3.8330 O         1 <0>         0.0046
  24065 WAT       -34.6820  -75.9160   -3.5830 O         1 <0>         0.0100
  24066 WAT       -34.6820  -75.9160   -3.3330 O         1 <0>         0.0145
  24067 WAT       -34.6820  -75.9160   -3.0830 O         1 <0>         0.0142
  24068 WAT       -34.6820  -75.9160   -2.8330 O         1 <0>         0.0093
  24069 WAT       -34.6820  -75.9160   -2.5830 O         1 <0>         0.0040
  24070 WAT       -34.6820  -75.9160   -2.3330 O         1 <0>         0.0011
  24071 WAT       -34.6820  -75.9160   -2.0830 O         1 <0>         0.0001
  24072 WAT       -34.6820  -75.9160   -1.8330 O         1 <0>         0.0000
  24073 WAT       -34.6820  -75.9160   -1.5830 O         1 <0>         0.0000
  24074 WAT       -34.6820  -75.9160   -1.3330 O         1 <0>         0.0000
  24075 WAT       -34.6820  -75.9160   -1.0830 O         1 <0>         0.0000
  24076 WAT       -34.6820  -75.9160   -0.8330 O         1 <0>         0.0000
  24077 WAT       -34.6820  -75.9160   -0.5830 O         1 <0>         0.0000
  24078 WAT       -34.6820  -75.9160   -0.3330 O         1 <0>         0.0000
  24079 WAT       -34.6820  -75.9160   -0.0830 O         1 <0>         0.0000
  24080 WAT       -34.6820  -75.6660   -9.8330 O         1 <0>         0.0000
  24081 WAT       -34.6820  -75.6660   -9.5830 O         1 <0>         0.0000
  24082 WAT       -34.6820  -75.6660   -9.3330 O         1 <0>         0.0000
  24083 WAT       -34.6820  -75.6660   -9.0830 O         1 <0>         0.0000
  24084 WAT       -34.6820  -75.6660   -8.8330 O         1 <0>         0.0000
  24085 WAT       -34.6820  -75.6660   -8.5830 O         1 <0>         0.0000
  24086 WAT       -34.6820  -75.6660   -8.3330 O         1 <0>         0.0000
  24087 WAT       -34.6820  -75.6660   -8.0830 O         1 <0>         0.0000
  24088 WAT       -34.6820  -75.6660   -7.8330 O         1 <0>         0.0000
  24089 WAT       -34.6820  -75.6660   -7.5830 O         1 <0>         0.0000
  24090 WAT       -34.6820  -75.6660   -7.3330 O         1 <0>         0.0000
  24091 WAT       -34.6820  -75.6660   -7.0830 O         1 <0>         0.0000
  24092 WAT       -34.6820  -75.6660   -6.8330 O         1 <0>         0.0000
  24093 WAT       -34.6820  -75.6660   -6.5830 O         1 <0>         0.0000
  24094 WAT       -34.6820  -75.6660   -6.3330 O         1 <0>         0.0000
  24095 WAT       -34.6820  -75.6660   -6.0830 O         1 <0>         0.0000
  24096 WAT       -34.6820  -75.6660   -5.8330 O         1 <0>         0.0000
  24097 WAT       -34.6820  -75.6660   -5.5830 O         1 <0>         0.0000
  24098 WAT       -34.6820  -75.6660   -5.3330 O         1 <0>         0.0000
  24099 WAT       -34.6820  -75.6660   -5.0830 O         1 <0>         0.0000
  24100 WAT       -34.6820  -75.6660   -4.8330 O         1 <0>         0.0000
  24101 WAT       -34.6820  -75.6660   -4.5830 O         1 <0>         0.0001
  24102 WAT       -34.6820  -75.6660   -4.3330 O         1 <0>         0.0009
  24103 WAT       -34.6820  -75.6660   -4.0830 O         1 <0>         0.0044
  24104 WAT       -34.6820  -75.6660   -3.8330 O         1 <0>         0.0128
  24105 WAT       -34.6820  -75.6660   -3.5830 O         1 <0>         0.0254
  24106 WAT       -34.6820  -75.6660   -3.3330 O         1 <0>         0.0351
  24107 WAT       -34.6820  -75.6660   -3.0830 O         1 <0>         0.0337
  24108 WAT       -34.6820  -75.6660   -2.8330 O         1 <0>         0.0221
  24109 WAT       -34.6820  -75.6660   -2.5830 O         1 <0>         0.0098
  24110 WAT       -34.6820  -75.6660   -2.3330 O         1 <0>         0.0028
  24111 WAT       -34.6820  -75.6660   -2.0830 O         1 <0>         0.0004
  24112 WAT       -34.6820  -75.6660   -1.8330 O         1 <0>         0.0000
  24113 WAT       -34.6820  -75.6660   -1.5830 O         1 <0>         0.0000
  24114 WAT       -34.6820  -75.6660   -1.3330 O         1 <0>         0.0000
  24115 WAT       -34.6820  -75.6660   -1.0830 O         1 <0>         0.0000
  24116 WAT       -34.6820  -75.6660   -0.8330 O         1 <0>         0.0000
  24117 WAT       -34.6820  -75.6660   -0.5830 O         1 <0>         0.0000
  24118 WAT       -34.6820  -75.6660   -0.3330 O         1 <0>         0.0000
  24119 WAT       -34.6820  -75.6660   -0.0830 O         1 <0>         0.0000
  24120 WAT       -34.6820  -75.4160   -9.8330 O         1 <0>         0.0000
  24121 WAT       -34.6820  -75.4160   -9.5830 O         1 <0>         0.0000
  24122 WAT       -34.6820  -75.4160   -9.3330 O         1 <0>         0.0000
  24123 WAT       -34.6820  -75.4160   -9.0830 O         1 <0>         0.0000
  24124 WAT       -34.6820  -75.4160   -8.8330 O         1 <0>         0.0000
  24125 WAT       -34.6820  -75.4160   -8.5830 O         1 <0>         0.0000
  24126 WAT       -34.6820  -75.4160   -8.3330 O         1 <0>         0.0000
  24127 WAT       -34.6820  -75.4160   -8.0830 O         1 <0>         0.0000
  24128 WAT       -34.6820  -75.4160   -7.8330 O         1 <0>         0.0000
  24129 WAT       -34.6820  -75.4160   -7.5830 O         1 <0>         0.0000
  24130 WAT       -34.6820  -75.4160   -7.3330 O         1 <0>         0.0000
  24131 WAT       -34.6820  -75.4160   -7.0830 O         1 <0>         0.0000
  24132 WAT       -34.6820  -75.4160   -6.8330 O         1 <0>         0.0000
  24133 WAT       -34.6820  -75.4160   -6.5830 O         1 <0>         0.0000
  24134 WAT       -34.6820  -75.4160   -6.3330 O         1 <0>         0.0000
  24135 WAT       -34.6820  -75.4160   -6.0830 O         1 <0>         0.0000
  24136 WAT       -34.6820  -75.4160   -5.8330 O         1 <0>         0.0000
  24137 WAT       -34.6820  -75.4160   -5.5830 O         1 <0>         0.0000
  24138 WAT       -34.6820  -75.4160   -5.3330 O         1 <0>         0.0000
  24139 WAT       -34.6820  -75.4160   -5.0830 O         1 <0>         0.0000
  24140 WAT       -34.6820  -75.4160   -4.8330 O         1 <0>         0.0001
  24141 WAT       -34.6820  -75.4160   -4.5830 O         1 <0>         0.0005
  24142 WAT       -34.6820  -75.4160   -4.3330 O         1 <0>         0.0026
  24143 WAT       -34.6820  -75.4160   -4.0830 O         1 <0>         0.0096
  24144 WAT       -34.6820  -75.4160   -3.8330 O         1 <0>         0.0249
  24145 WAT       -34.6820  -75.4160   -3.5830 O         1 <0>         0.0460
  24146 WAT       -34.6820  -75.4160   -3.3330 O         1 <0>         0.0607
  24147 WAT       -34.6820  -75.4160   -3.0830 O         1 <0>         0.0566
  24148 WAT       -34.6820  -75.4160   -2.8330 O         1 <0>         0.0368
  24149 WAT       -34.6820  -75.4160   -2.5830 O         1 <0>         0.0164
  24150 WAT       -34.6820  -75.4160   -2.3330 O         1 <0>         0.0048
  24151 WAT       -34.6820  -75.4160   -2.0830 O         1 <0>         0.0008
  24152 WAT       -34.6820  -75.4160   -1.8330 O         1 <0>         0.0000
  24153 WAT       -34.6820  -75.4160   -1.5830 O         1 <0>         0.0000
  24154 WAT       -34.6820  -75.4160   -1.3330 O         1 <0>         0.0000
  24155 WAT       -34.6820  -75.4160   -1.0830 O         1 <0>         0.0000
  24156 WAT       -34.6820  -75.4160   -0.8330 O         1 <0>         0.0000
  24157 WAT       -34.6820  -75.4160   -0.5830 O         1 <0>         0.0000
  24158 WAT       -34.6820  -75.4160   -0.3330 O         1 <0>         0.0000
  24159 WAT       -34.6820  -75.4160   -0.0830 O         1 <0>         0.0000
  24160 WAT       -34.6820  -75.1660   -9.8330 O         1 <0>         0.0000
  24161 WAT       -34.6820  -75.1660   -9.5830 O         1 <0>         0.0000
  24162 WAT       -34.6820  -75.1660   -9.3330 O         1 <0>         0.0000
  24163 WAT       -34.6820  -75.1660   -9.0830 O         1 <0>         0.0000
  24164 WAT       -34.6820  -75.1660   -8.8330 O         1 <0>         0.0000
  24165 WAT       -34.6820  -75.1660   -8.5830 O         1 <0>         0.0000
  24166 WAT       -34.6820  -75.1660   -8.3330 O         1 <0>         0.0000
  24167 WAT       -34.6820  -75.1660   -8.0830 O         1 <0>         0.0000
  24168 WAT       -34.6820  -75.1660   -7.8330 O         1 <0>         0.0000
  24169 WAT       -34.6820  -75.1660   -7.5830 O         1 <0>         0.0000
  24170 WAT       -34.6820  -75.1660   -7.3330 O         1 <0>         0.0000
  24171 WAT       -34.6820  -75.1660   -7.0830 O         1 <0>         0.0000
  24172 WAT       -34.6820  -75.1660   -6.8330 O         1 <0>         0.0000
  24173 WAT       -34.6820  -75.1660   -6.5830 O         1 <0>         0.0001
  24174 WAT       -34.6820  -75.1660   -6.3330 O         1 <0>         0.0002
  24175 WAT       -34.6820  -75.1660   -6.0830 O         1 <0>         0.0003
  24176 WAT       -34.6820  -75.1660   -5.8330 O         1 <0>         0.0003
  24177 WAT       -34.6820  -75.1660   -5.5830 O         1 <0>         0.0001
  24178 WAT       -34.6820  -75.1660   -5.3330 O         1 <0>         0.0001
  24179 WAT       -34.6820  -75.1660   -5.0830 O         1 <0>         0.0001
  24180 WAT       -34.6820  -75.1660   -4.8330 O         1 <0>         0.0003
  24181 WAT       -34.6820  -75.1660   -4.5830 O         1 <0>         0.0012
  24182 WAT       -34.6820  -75.1660   -4.3330 O         1 <0>         0.0047
  24183 WAT       -34.6820  -75.1660   -4.0830 O         1 <0>         0.0150
  24184 WAT       -34.6820  -75.1660   -3.8330 O         1 <0>         0.0357
  24185 WAT       -34.6820  -75.1660   -3.5830 O         1 <0>         0.0620
  24186 WAT       -34.6820  -75.1660   -3.3330 O         1 <0>         0.0780
  24187 WAT       -34.6820  -75.1660   -3.0830 O         1 <0>         0.0705
  24188 WAT       -34.6820  -75.1660   -2.8330 O         1 <0>         0.0452
  24189 WAT       -34.6820  -75.1660   -2.5830 O         1 <0>         0.0201
  24190 WAT       -34.6820  -75.1660   -2.3330 O         1 <0>         0.0059
  24191 WAT       -34.6820  -75.1660   -2.0830 O         1 <0>         0.0010
  24192 WAT       -34.6820  -75.1660   -1.8330 O         1 <0>         0.0001
  24193 WAT       -34.6820  -75.1660   -1.5830 O         1 <0>         0.0000
  24194 WAT       -34.6820  -75.1660   -1.3330 O         1 <0>         0.0000
  24195 WAT       -34.6820  -75.1660   -1.0830 O         1 <0>         0.0000
  24196 WAT       -34.6820  -75.1660   -0.8330 O         1 <0>         0.0000
  24197 WAT       -34.6820  -75.1660   -0.5830 O         1 <0>         0.0000
  24198 WAT       -34.6820  -75.1660   -0.3330 O         1 <0>         0.0000
  24199 WAT       -34.6820  -75.1660   -0.0830 O         1 <0>         0.0000
  24200 WAT       -34.6820  -74.9160   -9.8330 O         1 <0>         0.0000
  24201 WAT       -34.6820  -74.9160   -9.5830 O         1 <0>         0.0000
  24202 WAT       -34.6820  -74.9160   -9.3330 O         1 <0>         0.0000
  24203 WAT       -34.6820  -74.9160   -9.0830 O         1 <0>         0.0000
  24204 WAT       -34.6820  -74.9160   -8.8330 O         1 <0>         0.0000
  24205 WAT       -34.6820  -74.9160   -8.5830 O         1 <0>         0.0000
  24206 WAT       -34.6820  -74.9160   -8.3330 O         1 <0>         0.0000
  24207 WAT       -34.6820  -74.9160   -8.0830 O         1 <0>         0.0000
  24208 WAT       -34.6820  -74.9160   -7.8330 O         1 <0>         0.0000
  24209 WAT       -34.6820  -74.9160   -7.5830 O         1 <0>         0.0000
  24210 WAT       -34.6820  -74.9160   -7.3330 O         1 <0>         0.0000
  24211 WAT       -34.6820  -74.9160   -7.0830 O         1 <0>         0.0000
  24212 WAT       -34.6820  -74.9160   -6.8330 O         1 <0>         0.0002
  24213 WAT       -34.6820  -74.9160   -6.5830 O         1 <0>         0.0007
  24214 WAT       -34.6820  -74.9160   -6.3330 O         1 <0>         0.0014
  24215 WAT       -34.6820  -74.9160   -6.0830 O         1 <0>         0.0020
  24216 WAT       -34.6820  -74.9160   -5.8330 O         1 <0>         0.0018
  24217 WAT       -34.6820  -74.9160   -5.5830 O         1 <0>         0.0012
  24218 WAT       -34.6820  -74.9160   -5.3330 O         1 <0>         0.0007
  24219 WAT       -34.6820  -74.9160   -5.0830 O         1 <0>         0.0006
  24220 WAT       -34.6820  -74.9160   -4.8330 O         1 <0>         0.0009
  24221 WAT       -34.6820  -74.9160   -4.5830 O         1 <0>         0.0022
  24222 WAT       -34.6820  -74.9160   -4.3330 O         1 <0>         0.0065
  24223 WAT       -34.6820  -74.9160   -4.0830 O         1 <0>         0.0176
  24224 WAT       -34.6820  -74.9160   -3.8330 O         1 <0>         0.0392
  24225 WAT       -34.6820  -74.9160   -3.5830 O         1 <0>         0.0652
  24226 WAT       -34.6820  -74.9160   -3.3330 O         1 <0>         0.0794
  24227 WAT       -34.6820  -74.9160   -3.0830 O         1 <0>         0.0702
  24228 WAT       -34.6820  -74.9160   -2.8330 O         1 <0>         0.0446
  24229 WAT       -34.6820  -74.9160   -2.5830 O         1 <0>         0.0200
  24230 WAT       -34.6820  -74.9160   -2.3330 O         1 <0>         0.0060
  24231 WAT       -34.6820  -74.9160   -2.0830 O         1 <0>         0.0011
  24232 WAT       -34.6820  -74.9160   -1.8330 O         1 <0>         0.0001
  24233 WAT       -34.6820  -74.9160   -1.5830 O         1 <0>         0.0000
  24234 WAT       -34.6820  -74.9160   -1.3330 O         1 <0>         0.0000
  24235 WAT       -34.6820  -74.9160   -1.0830 O         1 <0>         0.0000
  24236 WAT       -34.6820  -74.9160   -0.8330 O         1 <0>         0.0000
  24237 WAT       -34.6820  -74.9160   -0.5830 O         1 <0>         0.0000
  24238 WAT       -34.6820  -74.9160   -0.3330 O         1 <0>         0.0000
  24239 WAT       -34.6820  -74.9160   -0.0830 O         1 <0>         0.0000
  24240 WAT       -34.6820  -74.6660   -9.8330 O         1 <0>         0.0000
  24241 WAT       -34.6820  -74.6660   -9.5830 O         1 <0>         0.0000
  24242 WAT       -34.6820  -74.6660   -9.3330 O         1 <0>         0.0000
  24243 WAT       -34.6820  -74.6660   -9.0830 O         1 <0>         0.0000
  24244 WAT       -34.6820  -74.6660   -8.8330 O         1 <0>         0.0000
  24245 WAT       -34.6820  -74.6660   -8.5830 O         1 <0>         0.0000
  24246 WAT       -34.6820  -74.6660   -8.3330 O         1 <0>         0.0000
  24247 WAT       -34.6820  -74.6660   -8.0830 O         1 <0>         0.0000
  24248 WAT       -34.6820  -74.6660   -7.8330 O         1 <0>         0.0000
  24249 WAT       -34.6820  -74.6660   -7.5830 O         1 <0>         0.0000
  24250 WAT       -34.6820  -74.6660   -7.3330 O         1 <0>         0.0000
  24251 WAT       -34.6820  -74.6660   -7.0830 O         1 <0>         0.0002
  24252 WAT       -34.6820  -74.6660   -6.8330 O         1 <0>         0.0008
  24253 WAT       -34.6820  -74.6660   -6.5830 O         1 <0>         0.0025
  24254 WAT       -34.6820  -74.6660   -6.3330 O         1 <0>         0.0050
  24255 WAT       -34.6820  -74.6660   -6.0830 O         1 <0>         0.0070
  24256 WAT       -34.6820  -74.6660   -5.8330 O         1 <0>         0.0067
  24257 WAT       -34.6820  -74.6660   -5.5830 O         1 <0>         0.0046
  24258 WAT       -34.6820  -74.6660   -5.3330 O         1 <0>         0.0029
  24259 WAT       -34.6820  -74.6660   -5.0830 O         1 <0>         0.0025
  24260 WAT       -34.6820  -74.6660   -4.8330 O         1 <0>         0.0029
  24261 WAT       -34.6820  -74.6660   -4.5830 O         1 <0>         0.0041
  24262 WAT       -34.6820  -74.6660   -4.3330 O         1 <0>         0.0075
  24263 WAT       -34.6820  -74.6660   -4.0830 O         1 <0>         0.0169
  24264 WAT       -34.6820  -74.6660   -3.8330 O         1 <0>         0.0353
  24265 WAT       -34.6820  -74.6660   -3.5830 O         1 <0>         0.0576
  24266 WAT       -34.6820  -74.6660   -3.3330 O         1 <0>         0.0695
  24267 WAT       -34.6820  -74.6660   -3.0830 O         1 <0>         0.0611
  24268 WAT       -34.6820  -74.6660   -2.8330 O         1 <0>         0.0388
  24269 WAT       -34.6820  -74.6660   -2.5830 O         1 <0>         0.0176
  24270 WAT       -34.6820  -74.6660   -2.3330 O         1 <0>         0.0056
  24271 WAT       -34.6820  -74.6660   -2.0830 O         1 <0>         0.0012
  24272 WAT       -34.6820  -74.6660   -1.8330 O         1 <0>         0.0002
  24273 WAT       -34.6820  -74.6660   -1.5830 O         1 <0>         0.0000
  24274 WAT       -34.6820  -74.6660   -1.3330 O         1 <0>         0.0000
  24275 WAT       -34.6820  -74.6660   -1.0830 O         1 <0>         0.0000
  24276 WAT       -34.6820  -74.6660   -0.8330 O         1 <0>         0.0000
  24277 WAT       -34.6820  -74.6660   -0.5830 O         1 <0>         0.0000
  24278 WAT       -34.6820  -74.6660   -0.3330 O         1 <0>         0.0000
  24279 WAT       -34.6820  -74.6660   -0.0830 O         1 <0>         0.0000
  24280 WAT       -34.6820  -74.4160   -9.8330 O         1 <0>         0.0000
  24281 WAT       -34.6820  -74.4160   -9.5830 O         1 <0>         0.0000
  24282 WAT       -34.6820  -74.4160   -9.3330 O         1 <0>         0.0000
  24283 WAT       -34.6820  -74.4160   -9.0830 O         1 <0>         0.0000
  24284 WAT       -34.6820  -74.4160   -8.8330 O         1 <0>         0.0000
  24285 WAT       -34.6820  -74.4160   -8.5830 O         1 <0>         0.0000
  24286 WAT       -34.6820  -74.4160   -8.3330 O         1 <0>         0.0000
  24287 WAT       -34.6820  -74.4160   -8.0830 O         1 <0>         0.0000
  24288 WAT       -34.6820  -74.4160   -7.8330 O         1 <0>         0.0000
  24289 WAT       -34.6820  -74.4160   -7.5830 O         1 <0>         0.0000
  24290 WAT       -34.6820  -74.4160   -7.3330 O         1 <0>         0.0001
  24291 WAT       -34.6820  -74.4160   -7.0830 O         1 <0>         0.0004
  24292 WAT       -34.6820  -74.4160   -6.8330 O         1 <0>         0.0019
  24293 WAT       -34.6820  -74.4160   -6.5830 O         1 <0>         0.0056
  24294 WAT       -34.6820  -74.4160   -6.3330 O         1 <0>         0.0111
  24295 WAT       -34.6820  -74.4160   -6.0830 O         1 <0>         0.0154
  24296 WAT       -34.6820  -74.4160   -5.8330 O         1 <0>         0.0150
  24297 WAT       -34.6820  -74.4160   -5.5830 O         1 <0>         0.0110
  24298 WAT       -34.6820  -74.4160   -5.3330 O         1 <0>         0.0079
  24299 WAT       -34.6820  -74.4160   -5.0830 O         1 <0>         0.0075
  24300 WAT       -34.6820  -74.4160   -4.8330 O         1 <0>         0.0081
  24301 WAT       -34.6820  -74.4160   -4.5830 O         1 <0>         0.0085
  24302 WAT       -34.6820  -74.4160   -4.3330 O         1 <0>         0.0096
  24303 WAT       -34.6820  -74.4160   -4.0830 O         1 <0>         0.0151
  24304 WAT       -34.6820  -74.4160   -3.8330 O         1 <0>         0.0284
  24305 WAT       -34.6820  -74.4160   -3.5830 O         1 <0>         0.0457
  24306 WAT       -34.6820  -74.4160   -3.3330 O         1 <0>         0.0555
  24307 WAT       -34.6820  -74.4160   -3.0830 O         1 <0>         0.0490
  24308 WAT       -34.6820  -74.4160   -2.8330 O         1 <0>         0.0314
  24309 WAT       -34.6820  -74.4160   -2.5830 O         1 <0>         0.0147
  24310 WAT       -34.6820  -74.4160   -2.3330 O         1 <0>         0.0052
  24311 WAT       -34.6820  -74.4160   -2.0830 O         1 <0>         0.0015
  24312 WAT       -34.6820  -74.4160   -1.8330 O         1 <0>         0.0004
  24313 WAT       -34.6820  -74.4160   -1.5830 O         1 <0>         0.0001
  24314 WAT       -34.6820  -74.4160   -1.3330 O         1 <0>         0.0000
  24315 WAT       -34.6820  -74.4160   -1.0830 O         1 <0>         0.0000
  24316 WAT       -34.6820  -74.4160   -0.8330 O         1 <0>         0.0000
  24317 WAT       -34.6820  -74.4160   -0.5830 O         1 <0>         0.0000
  24318 WAT       -34.6820  -74.4160   -0.3330 O         1 <0>         0.0000
  24319 WAT       -34.6820  -74.4160   -0.0830 O         1 <0>         0.0000
  24320 WAT       -34.6820  -74.1660   -9.8330 O         1 <0>         0.0000
  24321 WAT       -34.6820  -74.1660   -9.5830 O         1 <0>         0.0000
  24322 WAT       -34.6820  -74.1660   -9.3330 O         1 <0>         0.0000
  24323 WAT       -34.6820  -74.1660   -9.0830 O         1 <0>         0.0000
  24324 WAT       -34.6820  -74.1660   -8.8330 O         1 <0>         0.0000
  24325 WAT       -34.6820  -74.1660   -8.5830 O         1 <0>         0.0000
  24326 WAT       -34.6820  -74.1660   -8.3330 O         1 <0>         0.0000
  24327 WAT       -34.6820  -74.1660   -8.0830 O         1 <0>         0.0000
  24328 WAT       -34.6820  -74.1660   -7.8330 O         1 <0>         0.0000
  24329 WAT       -34.6820  -74.1660   -7.5830 O         1 <0>         0.0000
  24330 WAT       -34.6820  -74.1660   -7.3330 O         1 <0>         0.0001
  24331 WAT       -34.6820  -74.1660   -7.0830 O         1 <0>         0.0007
  24332 WAT       -34.6820  -74.1660   -6.8330 O         1 <0>         0.0030
  24333 WAT       -34.6820  -74.1660   -6.5830 O         1 <0>         0.0083
  24334 WAT       -34.6820  -74.1660   -6.3330 O         1 <0>         0.0162
  24335 WAT       -34.6820  -74.1660   -6.0830 O         1 <0>         0.0222
  24336 WAT       -34.6820  -74.1660   -5.8330 O         1 <0>         0.0221
  24337 WAT       -34.6820  -74.1660   -5.5830 O         1 <0>         0.0178
  24338 WAT       -34.6820  -74.1660   -5.3330 O         1 <0>         0.0153
  24339 WAT       -34.6820  -74.1660   -5.0830 O         1 <0>         0.0171
  24340 WAT       -34.6820  -74.1660   -4.8330 O         1 <0>         0.0193
  24341 WAT       -34.6820  -74.1660   -4.5830 O         1 <0>         0.0186
  24342 WAT       -34.6820  -74.1660   -4.3330 O         1 <0>         0.0158
  24343 WAT       -34.6820  -74.1660   -4.0830 O         1 <0>         0.0157
  24344 WAT       -34.6820  -74.1660   -3.8330 O         1 <0>         0.0226
  24345 WAT       -34.6820  -74.1660   -3.5830 O         1 <0>         0.0341
  24346 WAT       -34.6820  -74.1660   -3.3330 O         1 <0>         0.0408
  24347 WAT       -34.6820  -74.1660   -3.0830 O         1 <0>         0.0360
  24348 WAT       -34.6820  -74.1660   -2.8330 O         1 <0>         0.0233
  24349 WAT       -34.6820  -74.1660   -2.5830 O         1 <0>         0.0118
  24350 WAT       -34.6820  -74.1660   -2.3330 O         1 <0>         0.0053
  24351 WAT       -34.6820  -74.1660   -2.0830 O         1 <0>         0.0024
  24352 WAT       -34.6820  -74.1660   -1.8330 O         1 <0>         0.0010
  24353 WAT       -34.6820  -74.1660   -1.5830 O         1 <0>         0.0003
  24354 WAT       -34.6820  -74.1660   -1.3330 O         1 <0>         0.0001
  24355 WAT       -34.6820  -74.1660   -1.0830 O         1 <0>         0.0000
  24356 WAT       -34.6820  -74.1660   -0.8330 O         1 <0>         0.0000
  24357 WAT       -34.6820  -74.1660   -0.5830 O         1 <0>         0.0000
  24358 WAT       -34.6820  -74.1660   -0.3330 O         1 <0>         0.0000
  24359 WAT       -34.6820  -74.1660   -0.0830 O         1 <0>         0.0000
  24360 WAT       -34.6820  -73.9160   -9.8330 O         1 <0>         0.0000
  24361 WAT       -34.6820  -73.9160   -9.5830 O         1 <0>         0.0000
  24362 WAT       -34.6820  -73.9160   -9.3330 O         1 <0>         0.0000
  24363 WAT       -34.6820  -73.9160   -9.0830 O         1 <0>         0.0000
  24364 WAT       -34.6820  -73.9160   -8.8330 O         1 <0>         0.0000
  24365 WAT       -34.6820  -73.9160   -8.5830 O         1 <0>         0.0000
  24366 WAT       -34.6820  -73.9160   -8.3330 O         1 <0>         0.0000
  24367 WAT       -34.6820  -73.9160   -8.0830 O         1 <0>         0.0000
  24368 WAT       -34.6820  -73.9160   -7.8330 O         1 <0>         0.0000
  24369 WAT       -34.6820  -73.9160   -7.5830 O         1 <0>         0.0001
  24370 WAT       -34.6820  -73.9160   -7.3330 O         1 <0>         0.0003
  24371 WAT       -34.6820  -73.9160   -7.0830 O         1 <0>         0.0011
  24372 WAT       -34.6820  -73.9160   -6.8330 O         1 <0>         0.0034
  24373 WAT       -34.6820  -73.9160   -6.5830 O         1 <0>         0.0085
  24374 WAT       -34.6820  -73.9160   -6.3330 O         1 <0>         0.0158
  24375 WAT       -34.6820  -73.9160   -6.0830 O         1 <0>         0.0216
  24376 WAT       -34.6820  -73.9160   -5.8330 O         1 <0>         0.0223
  24377 WAT       -34.6820  -73.9160   -5.5830 O         1 <0>         0.0206
  24378 WAT       -34.6820  -73.9160   -5.3330 O         1 <0>         0.0230
  24379 WAT       -34.6820  -73.9160   -5.0830 O         1 <0>         0.0309
  24380 WAT       -34.6820  -73.9160   -4.8330 O         1 <0>         0.0371
  24381 WAT       -34.6820  -73.9160   -4.5830 O         1 <0>         0.0352
  24382 WAT       -34.6820  -73.9160   -4.3330 O         1 <0>         0.0268
  24383 WAT       -34.6820  -73.9160   -4.0830 O         1 <0>         0.0194
  24384 WAT       -34.6820  -73.9160   -3.8330 O         1 <0>         0.0188
  24385 WAT       -34.6820  -73.9160   -3.5830 O         1 <0>         0.0235
  24386 WAT       -34.6820  -73.9160   -3.3330 O         1 <0>         0.0266
  24387 WAT       -34.6820  -73.9160   -3.0830 O         1 <0>         0.0232
  24388 WAT       -34.6820  -73.9160   -2.8330 O         1 <0>         0.0156
  24389 WAT       -34.6820  -73.9160   -2.5830 O         1 <0>         0.0095
  24390 WAT       -34.6820  -73.9160   -2.3330 O         1 <0>         0.0062
  24391 WAT       -34.6820  -73.9160   -2.0830 O         1 <0>         0.0043
  24392 WAT       -34.6820  -73.9160   -1.8330 O         1 <0>         0.0025
  24393 WAT       -34.6820  -73.9160   -1.5830 O         1 <0>         0.0011
  24394 WAT       -34.6820  -73.9160   -1.3330 O         1 <0>         0.0003
  24395 WAT       -34.6820  -73.9160   -1.0830 O         1 <0>         0.0000
  24396 WAT       -34.6820  -73.9160   -0.8330 O         1 <0>         0.0000
  24397 WAT       -34.6820  -73.9160   -0.5830 O         1 <0>         0.0000
  24398 WAT       -34.6820  -73.9160   -0.3330 O         1 <0>         0.0000
  24399 WAT       -34.6820  -73.9160   -0.0830 O         1 <0>         0.0000
  24400 WAT       -34.6820  -73.6660   -9.8330 O         1 <0>         0.0000
  24401 WAT       -34.6820  -73.6660   -9.5830 O         1 <0>         0.0000
  24402 WAT       -34.6820  -73.6660   -9.3330 O         1 <0>         0.0000
  24403 WAT       -34.6820  -73.6660   -9.0830 O         1 <0>         0.0000
  24404 WAT       -34.6820  -73.6660   -8.8330 O         1 <0>         0.0000
  24405 WAT       -34.6820  -73.6660   -8.5830 O         1 <0>         0.0000
  24406 WAT       -34.6820  -73.6660   -8.3330 O         1 <0>         0.0000
  24407 WAT       -34.6820  -73.6660   -8.0830 O         1 <0>         0.0000
  24408 WAT       -34.6820  -73.6660   -7.8330 O         1 <0>         0.0001
  24409 WAT       -34.6820  -73.6660   -7.5830 O         1 <0>         0.0006
  24410 WAT       -34.6820  -73.6660   -7.3330 O         1 <0>         0.0016
  24411 WAT       -34.6820  -73.6660   -7.0830 O         1 <0>         0.0030
  24412 WAT       -34.6820  -73.6660   -6.8330 O         1 <0>         0.0046
  24413 WAT       -34.6820  -73.6660   -6.5830 O         1 <0>         0.0073
  24414 WAT       -34.6820  -73.6660   -6.3330 O         1 <0>         0.0111
  24415 WAT       -34.6820  -73.6660   -6.0830 O         1 <0>         0.0144
  24416 WAT       -34.6820  -73.6660   -5.8330 O         1 <0>         0.0158
  24417 WAT       -34.6820  -73.6660   -5.5830 O         1 <0>         0.0184
  24418 WAT       -34.6820  -73.6660   -5.3330 O         1 <0>         0.0279
  24419 WAT       -34.6820  -73.6660   -5.0830 O         1 <0>         0.0438
  24420 WAT       -34.6820  -73.6660   -4.8330 O         1 <0>         0.0556
  24421 WAT       -34.6820  -73.6660   -4.5830 O         1 <0>         0.0531
  24422 WAT       -34.6820  -73.6660   -4.3330 O         1 <0>         0.0387
  24423 WAT       -34.6820  -73.6660   -4.0830 O         1 <0>         0.0238
  24424 WAT       -34.6820  -73.6660   -3.8330 O         1 <0>         0.0159
  24425 WAT       -34.6820  -73.6660   -3.5830 O         1 <0>         0.0146
  24426 WAT       -34.6820  -73.6660   -3.3330 O         1 <0>         0.0148
  24427 WAT       -34.6820  -73.6660   -3.0830 O         1 <0>         0.0126
  24428 WAT       -34.6820  -73.6660   -2.8330 O         1 <0>         0.0094
  24429 WAT       -34.6820  -73.6660   -2.5830 O         1 <0>         0.0078
  24430 WAT       -34.6820  -73.6660   -2.3330 O         1 <0>         0.0077
  24431 WAT       -34.6820  -73.6660   -2.0830 O         1 <0>         0.0070
  24432 WAT       -34.6820  -73.6660   -1.8330 O         1 <0>         0.0048
  24433 WAT       -34.6820  -73.6660   -1.5830 O         1 <0>         0.0023
  24434 WAT       -34.6820  -73.6660   -1.3330 O         1 <0>         0.0008
  24435 WAT       -34.6820  -73.6660   -1.0830 O         1 <0>         0.0001
  24436 WAT       -34.6820  -73.6660   -0.8330 O         1 <0>         0.0000
  24437 WAT       -34.6820  -73.6660   -0.5830 O         1 <0>         0.0000
  24438 WAT       -34.6820  -73.6660   -0.3330 O         1 <0>         0.0000
  24439 WAT       -34.6820  -73.6660   -0.0830 O         1 <0>         0.0000
  24440 WAT       -34.6820  -73.4160   -9.8330 O         1 <0>         0.0000
  24441 WAT       -34.6820  -73.4160   -9.5830 O         1 <0>         0.0000
  24442 WAT       -34.6820  -73.4160   -9.3330 O         1 <0>         0.0000
  24443 WAT       -34.6820  -73.4160   -9.0830 O         1 <0>         0.0000
  24444 WAT       -34.6820  -73.4160   -8.8330 O         1 <0>         0.0000
  24445 WAT       -34.6820  -73.4160   -8.5830 O         1 <0>         0.0000
  24446 WAT       -34.6820  -73.4160   -8.3330 O         1 <0>         0.0000
  24447 WAT       -34.6820  -73.4160   -8.0830 O         1 <0>         0.0001
  24448 WAT       -34.6820  -73.4160   -7.8330 O         1 <0>         0.0008
  24449 WAT       -34.6820  -73.4160   -7.5830 O         1 <0>         0.0032
  24450 WAT       -34.6820  -73.4160   -7.3330 O         1 <0>         0.0071
  24451 WAT       -34.6820  -73.4160   -7.0830 O         1 <0>         0.0102
  24452 WAT       -34.6820  -73.4160   -6.8330 O         1 <0>         0.0104
  24453 WAT       -34.6820  -73.4160   -6.5830 O         1 <0>         0.0086
  24454 WAT       -34.6820  -73.4160   -6.3330 O         1 <0>         0.0073
  24455 WAT       -34.6820  -73.4160   -6.0830 O         1 <0>         0.0071
  24456 WAT       -34.6820  -73.4160   -5.8330 O         1 <0>         0.0083
  24457 WAT       -34.6820  -73.4160   -5.5830 O         1 <0>         0.0136
  24458 WAT       -34.6820  -73.4160   -5.3330 O         1 <0>         0.0271
  24459 WAT       -34.6820  -73.4160   -5.0830 O         1 <0>         0.0475
  24460 WAT       -34.6820  -73.4160   -4.8330 O         1 <0>         0.0629
  24461 WAT       -34.6820  -73.4160   -4.5830 O         1 <0>         0.0608
  24462 WAT       -34.6820  -73.4160   -4.3330 O         1 <0>         0.0437
  24463 WAT       -34.6820  -73.4160   -4.0830 O         1 <0>         0.0246
  24464 WAT       -34.6820  -73.4160   -3.8330 O         1 <0>         0.0127
  24465 WAT       -34.6820  -73.4160   -3.5830 O         1 <0>         0.0081
  24466 WAT       -34.6820  -73.4160   -3.3330 O         1 <0>         0.0067
  24467 WAT       -34.6820  -73.4160   -3.0830 O         1 <0>         0.0057
  24468 WAT       -34.6820  -73.4160   -2.8330 O         1 <0>         0.0053
  24469 WAT       -34.6820  -73.4160   -2.5830 O         1 <0>         0.0067
  24470 WAT       -34.6820  -73.4160   -2.3330 O         1 <0>         0.0087
  24471 WAT       -34.6820  -73.4160   -2.0830 O         1 <0>         0.0090
  24472 WAT       -34.6820  -73.4160   -1.8330 O         1 <0>         0.0067
  24473 WAT       -34.6820  -73.4160   -1.5830 O         1 <0>         0.0035
  24474 WAT       -34.6820  -73.4160   -1.3330 O         1 <0>         0.0012
  24475 WAT       -34.6820  -73.4160   -1.0830 O         1 <0>         0.0003
  24476 WAT       -34.6820  -73.4160   -0.8330 O         1 <0>         0.0000
  24477 WAT       -34.6820  -73.4160   -0.5830 O         1 <0>         0.0000
  24478 WAT       -34.6820  -73.4160   -0.3330 O         1 <0>         0.0000
  24479 WAT       -34.6820  -73.4160   -0.0830 O         1 <0>         0.0000
  24480 WAT       -34.6820  -73.1660   -9.8330 O         1 <0>         0.0000
  24481 WAT       -34.6820  -73.1660   -9.5830 O         1 <0>         0.0000
  24482 WAT       -34.6820  -73.1660   -9.3330 O         1 <0>         0.0000
  24483 WAT       -34.6820  -73.1660   -9.0830 O         1 <0>         0.0000
  24484 WAT       -34.6820  -73.1660   -8.8330 O         1 <0>         0.0000
  24485 WAT       -34.6820  -73.1660   -8.5830 O         1 <0>         0.0000
  24486 WAT       -34.6820  -73.1660   -8.3330 O         1 <0>         0.0000
  24487 WAT       -34.6820  -73.1660   -8.0830 O         1 <0>         0.0005
  24488 WAT       -34.6820  -73.1660   -7.8330 O         1 <0>         0.0038
  24489 WAT       -34.6820  -73.1660   -7.5830 O         1 <0>         0.0128
  24490 WAT       -34.6820  -73.1660   -7.3330 O         1 <0>         0.0250
  24491 WAT       -34.6820  -73.1660   -7.0830 O         1 <0>         0.0314
  24492 WAT       -34.6820  -73.1660   -6.8330 O         1 <0>         0.0269
  24493 WAT       -34.6820  -73.1660   -6.5830 O         1 <0>         0.0164
  24494 WAT       -34.6820  -73.1660   -6.3330 O         1 <0>         0.0077
  24495 WAT       -34.6820  -73.1660   -6.0830 O         1 <0>         0.0037
  24496 WAT       -34.6820  -73.1660   -5.8330 O         1 <0>         0.0037
  24497 WAT       -34.6820  -73.1660   -5.5830 O         1 <0>         0.0084
  24498 WAT       -34.6820  -73.1660   -5.3330 O         1 <0>         0.0203
  24499 WAT       -34.6820  -73.1660   -5.0830 O         1 <0>         0.0385
  24500 WAT       -34.6820  -73.1660   -4.8330 O         1 <0>         0.0525
  24501 WAT       -34.6820  -73.1660   -4.5830 O         1 <0>         0.0516
  24502 WAT       -34.6820  -73.1660   -4.3330 O         1 <0>         0.0369
  24503 WAT       -34.6820  -73.1660   -4.0830 O         1 <0>         0.0198
  24504 WAT       -34.6820  -73.1660   -3.8330 O         1 <0>         0.0087
  24505 WAT       -34.6820  -73.1660   -3.5830 O         1 <0>         0.0040
  24506 WAT       -34.6820  -73.1660   -3.3330 O         1 <0>         0.0026
  24507 WAT       -34.6820  -73.1660   -3.0830 O         1 <0>         0.0023
  24508 WAT       -34.6820  -73.1660   -2.8330 O         1 <0>         0.0031
  24509 WAT       -34.6820  -73.1660   -2.5830 O         1 <0>         0.0053
  24510 WAT       -34.6820  -73.1660   -2.3330 O         1 <0>         0.0078
  24511 WAT       -34.6820  -73.1660   -2.0830 O         1 <0>         0.0085
  24512 WAT       -34.6820  -73.1660   -1.8330 O         1 <0>         0.0065
  24513 WAT       -34.6820  -73.1660   -1.5830 O         1 <0>         0.0035
  24514 WAT       -34.6820  -73.1660   -1.3330 O         1 <0>         0.0013
  24515 WAT       -34.6820  -73.1660   -1.0830 O         1 <0>         0.0003
  24516 WAT       -34.6820  -73.1660   -0.8330 O         1 <0>         0.0000
  24517 WAT       -34.6820  -73.1660   -0.5830 O         1 <0>         0.0000
  24518 WAT       -34.6820  -73.1660   -0.3330 O         1 <0>         0.0000
  24519 WAT       -34.6820  -73.1660   -0.0830 O         1 <0>         0.0000
  24520 WAT       -34.6820  -72.9160   -9.8330 O         1 <0>         0.0000
  24521 WAT       -34.6820  -72.9160   -9.5830 O         1 <0>         0.0000
  24522 WAT       -34.6820  -72.9160   -9.3330 O         1 <0>         0.0000
  24523 WAT       -34.6820  -72.9160   -9.0830 O         1 <0>         0.0000
  24524 WAT       -34.6820  -72.9160   -8.8330 O         1 <0>         0.0000
  24525 WAT       -34.6820  -72.9160   -8.5830 O         1 <0>         0.0000
  24526 WAT       -34.6820  -72.9160   -8.3330 O         1 <0>         0.0001
  24527 WAT       -34.6820  -72.9160   -8.0830 O         1 <0>         0.0024
  24528 WAT       -34.6820  -72.9160   -7.8330 O         1 <0>         0.0138
  24529 WAT       -34.6820  -72.9160   -7.5830 O         1 <0>         0.0399
  24530 WAT       -34.6820  -72.9160   -7.3330 O         1 <0>         0.0703
  24531 WAT       -34.6820  -72.9160   -7.0830 O         1 <0>         0.0803
  24532 WAT       -34.6820  -72.9160   -6.8330 O         1 <0>         0.0617
  24533 WAT       -34.6820  -72.9160   -6.5830 O         1 <0>         0.0329
  24534 WAT       -34.6820  -72.9160   -6.3330 O         1 <0>         0.0123
  24535 WAT       -34.6820  -72.9160   -6.0830 O         1 <0>         0.0035
  24536 WAT       -34.6820  -72.9160   -5.8330 O         1 <0>         0.0017
  24537 WAT       -34.6820  -72.9160   -5.5830 O         1 <0>         0.0041
  24538 WAT       -34.6820  -72.9160   -5.3330 O         1 <0>         0.0113
  24539 WAT       -34.6820  -72.9160   -5.0830 O         1 <0>         0.0226
  24540 WAT       -34.6820  -72.9160   -4.8330 O         1 <0>         0.0319
  24541 WAT       -34.6820  -72.9160   -4.5830 O         1 <0>         0.0319
  24542 WAT       -34.6820  -72.9160   -4.3330 O         1 <0>         0.0228
  24543 WAT       -34.6820  -72.9160   -4.0830 O         1 <0>         0.0119
  24544 WAT       -34.6820  -72.9160   -3.8330 O         1 <0>         0.0047
  24545 WAT       -34.6820  -72.9160   -3.5830 O         1 <0>         0.0017
  24546 WAT       -34.6820  -72.9160   -3.3330 O         1 <0>         0.0009
  24547 WAT       -34.6820  -72.9160   -3.0830 O         1 <0>         0.0009
  24548 WAT       -34.6820  -72.9160   -2.8330 O         1 <0>         0.0018
  24549 WAT       -34.6820  -72.9160   -2.5830 O         1 <0>         0.0034
  24550 WAT       -34.6820  -72.9160   -2.3330 O         1 <0>         0.0051
  24551 WAT       -34.6820  -72.9160   -2.0830 O         1 <0>         0.0056
  24552 WAT       -34.6820  -72.9160   -1.8330 O         1 <0>         0.0044
  24553 WAT       -34.6820  -72.9160   -1.5830 O         1 <0>         0.0024
  24554 WAT       -34.6820  -72.9160   -1.3330 O         1 <0>         0.0009
  24555 WAT       -34.6820  -72.9160   -1.0830 O         1 <0>         0.0002
  24556 WAT       -34.6820  -72.9160   -0.8330 O         1 <0>         0.0000
  24557 WAT       -34.6820  -72.9160   -0.5830 O         1 <0>         0.0000
  24558 WAT       -34.6820  -72.9160   -0.3330 O         1 <0>         0.0000
  24559 WAT       -34.6820  -72.9160   -0.0830 O         1 <0>         0.0000
  24560 WAT       -34.6820  -72.6660   -9.8330 O         1 <0>         0.0000
  24561 WAT       -34.6820  -72.6660   -9.5830 O         1 <0>         0.0000
  24562 WAT       -34.6820  -72.6660   -9.3330 O         1 <0>         0.0000
  24563 WAT       -34.6820  -72.6660   -9.0830 O         1 <0>         0.0000
  24564 WAT       -34.6820  -72.6660   -8.8330 O         1 <0>         0.0000
  24565 WAT       -34.6820  -72.6660   -8.5830 O         1 <0>         0.0000
  24566 WAT       -34.6820  -72.6660   -8.3330 O         1 <0>         0.0005
  24567 WAT       -34.6820  -72.6660   -8.0830 O         1 <0>         0.0079
  24568 WAT       -34.6820  -72.6660   -7.8330 O         1 <0>         0.0376
  24569 WAT       -34.6820  -72.6660   -7.5830 O         1 <0>         0.0978
  24570 WAT       -34.6820  -72.6660   -7.3330 O         1 <0>         0.1591
  24571 WAT       -34.6820  -72.6660   -7.0830 O         1 <0>         0.1680
  24572 WAT       -34.6820  -72.6660   -6.8330 O         1 <0>         0.1179
  24573 WAT       -34.6820  -72.6660   -6.5830 O         1 <0>         0.0565
  24574 WAT       -34.6820  -72.6660   -6.3330 O         1 <0>         0.0186
  24575 WAT       -34.6820  -72.6660   -6.0830 O         1 <0>         0.0041
  24576 WAT       -34.6820  -72.6660   -5.8330 O         1 <0>         0.0009
  24577 WAT       -34.6820  -72.6660   -5.5830 O         1 <0>         0.0015
  24578 WAT       -34.6820  -72.6660   -5.3330 O         1 <0>         0.0045
  24579 WAT       -34.6820  -72.6660   -5.0830 O         1 <0>         0.0094
  24580 WAT       -34.6820  -72.6660   -4.8330 O         1 <0>         0.0139
  24581 WAT       -34.6820  -72.6660   -4.5830 O         1 <0>         0.0141
  24582 WAT       -34.6820  -72.6660   -4.3330 O         1 <0>         0.0100
  24583 WAT       -34.6820  -72.6660   -4.0830 O         1 <0>         0.0051
  24584 WAT       -34.6820  -72.6660   -3.8330 O         1 <0>         0.0018
  24585 WAT       -34.6820  -72.6660   -3.5830 O         1 <0>         0.0005
  24586 WAT       -34.6820  -72.6660   -3.3330 O         1 <0>         0.0003
  24587 WAT       -34.6820  -72.6660   -3.0830 O         1 <0>         0.0004
  24588 WAT       -34.6820  -72.6660   -2.8330 O         1 <0>         0.0008
  24589 WAT       -34.6820  -72.6660   -2.5830 O         1 <0>         0.0016
  24590 WAT       -34.6820  -72.6660   -2.3330 O         1 <0>         0.0023
  24591 WAT       -34.6820  -72.6660   -2.0830 O         1 <0>         0.0025
  24592 WAT       -34.6820  -72.6660   -1.8330 O         1 <0>         0.0019
  24593 WAT       -34.6820  -72.6660   -1.5830 O         1 <0>         0.0010
  24594 WAT       -34.6820  -72.6660   -1.3330 O         1 <0>         0.0004
  24595 WAT       -34.6820  -72.6660   -1.0830 O         1 <0>         0.0001
  24596 WAT       -34.6820  -72.6660   -0.8330 O         1 <0>         0.0000
  24597 WAT       -34.6820  -72.6660   -0.5830 O         1 <0>         0.0000
  24598 WAT       -34.6820  -72.6660   -0.3330 O         1 <0>         0.0000
  24599 WAT       -34.6820  -72.6660   -0.0830 O         1 <0>         0.0000
  24600 WAT       -34.6820  -72.4160   -9.8330 O         1 <0>         0.0000
  24601 WAT       -34.6820  -72.4160   -9.5830 O         1 <0>         0.0000
  24602 WAT       -34.6820  -72.4160   -9.3330 O         1 <0>         0.0000
  24603 WAT       -34.6820  -72.4160   -9.0830 O         1 <0>         0.0000
  24604 WAT       -34.6820  -72.4160   -8.8330 O         1 <0>         0.0000
  24605 WAT       -34.6820  -72.4160   -8.5830 O         1 <0>         0.0000
  24606 WAT       -34.6820  -72.4160   -8.3330 O         1 <0>         0.0018
  24607 WAT       -34.6820  -72.4160   -8.0830 O         1 <0>         0.0193
  24608 WAT       -34.6820  -72.4160   -7.8330 O         1 <0>         0.0787
  24609 WAT       -34.6820  -72.4160   -7.5830 O         1 <0>         0.1889
  24610 WAT       -34.6820  -72.4160   -7.3330 O         1 <0>         0.2873
  24611 WAT       -34.6820  -72.4160   -7.0830 O         1 <0>         0.2825
  24612 WAT       -34.6820  -72.4160   -6.8330 O         1 <0>         0.1829
  24613 WAT       -34.6820  -72.4160   -6.5830 O         1 <0>         0.0795
  24614 WAT       -34.6820  -72.4160   -6.3330 O         1 <0>         0.0231
  24615 WAT       -34.6820  -72.4160   -6.0830 O         1 <0>         0.0043
  24616 WAT       -34.6820  -72.4160   -5.8330 O         1 <0>         0.0006
  24617 WAT       -34.6820  -72.4160   -5.5830 O         1 <0>         0.0004
  24618 WAT       -34.6820  -72.4160   -5.3330 O         1 <0>         0.0012
  24619 WAT       -34.6820  -72.4160   -5.0830 O         1 <0>         0.0027
  24620 WAT       -34.6820  -72.4160   -4.8330 O         1 <0>         0.0042
  24621 WAT       -34.6820  -72.4160   -4.5830 O         1 <0>         0.0044
  24622 WAT       -34.6820  -72.4160   -4.3330 O         1 <0>         0.0031
  24623 WAT       -34.6820  -72.4160   -4.0830 O         1 <0>         0.0015
  24624 WAT       -34.6820  -72.4160   -3.8330 O         1 <0>         0.0005
  24625 WAT       -34.6820  -72.4160   -3.5830 O         1 <0>         0.0001
  24626 WAT       -34.6820  -72.4160   -3.3330 O         1 <0>         0.0001
  24627 WAT       -34.6820  -72.4160   -3.0830 O         1 <0>         0.0001
  24628 WAT       -34.6820  -72.4160   -2.8330 O         1 <0>         0.0003
  24629 WAT       -34.6820  -72.4160   -2.5830 O         1 <0>         0.0005
  24630 WAT       -34.6820  -72.4160   -2.3330 O         1 <0>         0.0007
  24631 WAT       -34.6820  -72.4160   -2.0830 O         1 <0>         0.0007
  24632 WAT       -34.6820  -72.4160   -1.8330 O         1 <0>         0.0005
  24633 WAT       -34.6820  -72.4160   -1.5830 O         1 <0>         0.0003
  24634 WAT       -34.6820  -72.4160   -1.3330 O         1 <0>         0.0001
  24635 WAT       -34.6820  -72.4160   -1.0830 O         1 <0>         0.0000
  24636 WAT       -34.6820  -72.4160   -0.8330 O         1 <0>         0.0000
  24637 WAT       -34.6820  -72.4160   -0.5830 O         1 <0>         0.0000
  24638 WAT       -34.6820  -72.4160   -0.3330 O         1 <0>         0.0000
  24639 WAT       -34.6820  -72.4160   -0.0830 O         1 <0>         0.0000
  24640 WAT       -34.6820  -72.1660   -9.8330 O         1 <0>         0.0000
  24641 WAT       -34.6820  -72.1660   -9.5830 O         1 <0>         0.0000
  24642 WAT       -34.6820  -72.1660   -9.3330 O         1 <0>         0.0000
  24643 WAT       -34.6820  -72.1660   -9.0830 O         1 <0>         0.0000
  24644 WAT       -34.6820  -72.1660   -8.8330 O         1 <0>         0.0000
  24645 WAT       -34.6820  -72.1660   -8.5830 O         1 <0>         0.0001
  24646 WAT       -34.6820  -72.1660   -8.3330 O         1 <0>         0.0042
  24647 WAT       -34.6820  -72.1660   -8.0830 O         1 <0>         0.0347
  24648 WAT       -34.6820  -72.1660   -7.8330 O         1 <0>         0.1280
  24649 WAT       -34.6820  -72.1660   -7.5830 O         1 <0>         0.2879
  24650 WAT       -34.6820  -72.1660   -7.3330 O         1 <0>         0.4108
  24651 WAT       -34.6820  -72.1660   -7.0830 O         1 <0>         0.3776
  24652 WAT       -34.6820  -72.1660   -6.8330 O         1 <0>         0.2267
  24653 WAT       -34.6820  -72.1660   -6.5830 O         1 <0>         0.0902
  24654 WAT       -34.6820  -72.1660   -6.3330 O         1 <0>         0.0232
  24655 WAT       -34.6820  -72.1660   -6.0830 O         1 <0>         0.0035
  24656 WAT       -34.6820  -72.1660   -5.8330 O         1 <0>         0.0003
  24657 WAT       -34.6820  -72.1660   -5.5830 O         1 <0>         0.0001
  24658 WAT       -34.6820  -72.1660   -5.3330 O         1 <0>         0.0002
  24659 WAT       -34.6820  -72.1660   -5.0830 O         1 <0>         0.0005
  24660 WAT       -34.6820  -72.1660   -4.8330 O         1 <0>         0.0008
  24661 WAT       -34.6820  -72.1660   -4.5830 O         1 <0>         0.0009
  24662 WAT       -34.6820  -72.1660   -4.3330 O         1 <0>         0.0006
  24663 WAT       -34.6820  -72.1660   -4.0830 O         1 <0>         0.0003
  24664 WAT       -34.6820  -72.1660   -3.8330 O         1 <0>         0.0001
  24665 WAT       -34.6820  -72.1660   -3.5830 O         1 <0>         0.0000
  24666 WAT       -34.6820  -72.1660   -3.3330 O         1 <0>         0.0000
  24667 WAT       -34.6820  -72.1660   -3.0830 O         1 <0>         0.0000
  24668 WAT       -34.6820  -72.1660   -2.8330 O         1 <0>         0.0001
  24669 WAT       -34.6820  -72.1660   -2.5830 O         1 <0>         0.0001
  24670 WAT       -34.6820  -72.1660   -2.3330 O         1 <0>         0.0001
  24671 WAT       -34.6820  -72.1660   -2.0830 O         1 <0>         0.0001
  24672 WAT       -34.6820  -72.1660   -1.8330 O         1 <0>         0.0001
  24673 WAT       -34.6820  -72.1660   -1.5830 O         1 <0>         0.0000
  24674 WAT       -34.6820  -72.1660   -1.3330 O         1 <0>         0.0000
  24675 WAT       -34.6820  -72.1660   -1.0830 O         1 <0>         0.0000
  24676 WAT       -34.6820  -72.1660   -0.8330 O         1 <0>         0.0000
  24677 WAT       -34.6820  -72.1660   -0.5830 O         1 <0>         0.0000
  24678 WAT       -34.6820  -72.1660   -0.3330 O         1 <0>         0.0000
  24679 WAT       -34.6820  -72.1660   -0.0830 O         1 <0>         0.0000
  24680 WAT       -34.6820  -71.9160   -9.8330 O         1 <0>         0.0000
  24681 WAT       -34.6820  -71.9160   -9.5830 O         1 <0>         0.0000
  24682 WAT       -34.6820  -71.9160   -9.3330 O         1 <0>         0.0000
  24683 WAT       -34.6820  -71.9160   -9.0830 O         1 <0>         0.0000
  24684 WAT       -34.6820  -71.9160   -8.8330 O         1 <0>         0.0000
  24685 WAT       -34.6820  -71.9160   -8.5830 O         1 <0>         0.0002
  24686 WAT       -34.6820  -71.9160   -8.3330 O         1 <0>         0.0068
  24687 WAT       -34.6820  -71.9160   -8.0830 O         1 <0>         0.0465
  24688 WAT       -34.6820  -71.9160   -7.8330 O         1 <0>         0.1613
  24689 WAT       -34.6820  -71.9160   -7.5830 O         1 <0>         0.3433
  24690 WAT       -34.6820  -71.9160   -7.3330 O         1 <0>         0.4625
  24691 WAT       -34.6820  -71.9160   -7.0830 O         1 <0>         0.3991
  24692 WAT       -34.6820  -71.9160   -6.8330 O         1 <0>         0.2233
  24693 WAT       -34.6820  -71.9160   -6.5830 O         1 <0>         0.0818
  24694 WAT       -34.6820  -71.9160   -6.3330 O         1 <0>         0.0182
  24695 WAT       -34.6820  -71.9160   -6.0830 O         1 <0>         0.0021
  24696 WAT       -34.6820  -71.9160   -5.8330 O         1 <0>         0.0001
  24697 WAT       -34.6820  -71.9160   -5.5830 O         1 <0>         0.0000
  24698 WAT       -34.6820  -71.9160   -5.3330 O         1 <0>         0.0000
  24699 WAT       -34.6820  -71.9160   -5.0830 O         1 <0>         0.0000
  24700 WAT       -34.6820  -71.9160   -4.8330 O         1 <0>         0.0001
  24701 WAT       -34.6820  -71.9160   -4.5830 O         1 <0>         0.0001
  24702 WAT       -34.6820  -71.9160   -4.3330 O         1 <0>         0.0001
  24703 WAT       -34.6820  -71.9160   -4.0830 O         1 <0>         0.0000
  24704 WAT       -34.6820  -71.9160   -3.8330 O         1 <0>         0.0000
  24705 WAT       -34.6820  -71.9160   -3.5830 O         1 <0>         0.0000
  24706 WAT       -34.6820  -71.9160   -3.3330 O         1 <0>         0.0000
  24707 WAT       -34.6820  -71.9160   -3.0830 O         1 <0>         0.0000
  24708 WAT       -34.6820  -71.9160   -2.8330 O         1 <0>         0.0000
  24709 WAT       -34.6820  -71.9160   -2.5830 O         1 <0>         0.0000
  24710 WAT       -34.6820  -71.9160   -2.3330 O         1 <0>         0.0000
  24711 WAT       -34.6820  -71.9160   -2.0830 O         1 <0>         0.0000
  24712 WAT       -34.6820  -71.9160   -1.8330 O         1 <0>         0.0000
  24713 WAT       -34.6820  -71.9160   -1.5830 O         1 <0>         0.0000
  24714 WAT       -34.6820  -71.9160   -1.3330 O         1 <0>         0.0000
  24715 WAT       -34.6820  -71.9160   -1.0830 O         1 <0>         0.0000
  24716 WAT       -34.6820  -71.9160   -0.8330 O         1 <0>         0.0000
  24717 WAT       -34.6820  -71.9160   -0.5830 O         1 <0>         0.0000
  24718 WAT       -34.6820  -71.9160   -0.3330 O         1 <0>         0.0000
  24719 WAT       -34.6820  -71.9160   -0.0830 O         1 <0>         0.0000
  24720 WAT       -34.6820  -71.6660   -9.8330 O         1 <0>         0.0000
  24721 WAT       -34.6820  -71.6660   -9.5830 O         1 <0>         0.0000
  24722 WAT       -34.6820  -71.6660   -9.3330 O         1 <0>         0.0000
  24723 WAT       -34.6820  -71.6660   -9.0830 O         1 <0>         0.0000
  24724 WAT       -34.6820  -71.6660   -8.8330 O         1 <0>         0.0000
  24725 WAT       -34.6820  -71.6660   -8.5830 O         1 <0>         0.0003
  24726 WAT       -34.6820  -71.6660   -8.3330 O         1 <0>         0.0074
  24727 WAT       -34.6820  -71.6660   -8.0830 O         1 <0>         0.0468
  24728 WAT       -34.6820  -71.6660   -7.8330 O         1 <0>         0.1551
  24729 WAT       -34.6820  -71.6660   -7.5830 O         1 <0>         0.3161
  24730 WAT       -34.6820  -71.6660   -7.3330 O         1 <0>         0.4056
  24731 WAT       -34.6820  -71.6660   -7.0830 O         1 <0>         0.3315
  24732 WAT       -34.6820  -71.6660   -6.8330 O         1 <0>         0.1743
  24733 WAT       -34.6820  -71.6660   -6.5830 O         1 <0>         0.0589
  24734 WAT       -34.6820  -71.6660   -6.3330 O         1 <0>         0.0110
  24735 WAT       -34.6820  -71.6660   -6.0830 O         1 <0>         0.0009
  24736 WAT       -34.6820  -71.6660   -5.8330 O         1 <0>         0.0000
  24737 WAT       -34.6820  -71.6660   -5.5830 O         1 <0>         0.0000
  24738 WAT       -34.6820  -71.6660   -5.3330 O         1 <0>         0.0000
  24739 WAT       -34.6820  -71.6660   -5.0830 O         1 <0>         0.0000
  24740 WAT       -34.6820  -71.6660   -4.8330 O         1 <0>         0.0000
  24741 WAT       -34.6820  -71.6660   -4.5830 O         1 <0>         0.0000
  24742 WAT       -34.6820  -71.6660   -4.3330 O         1 <0>         0.0000
  24743 WAT       -34.6820  -71.6660   -4.0830 O         1 <0>         0.0000
  24744 WAT       -34.6820  -71.6660   -3.8330 O         1 <0>         0.0000
  24745 WAT       -34.6820  -71.6660   -3.5830 O         1 <0>         0.0000
  24746 WAT       -34.6820  -71.6660   -3.3330 O         1 <0>         0.0000
  24747 WAT       -34.6820  -71.6660   -3.0830 O         1 <0>         0.0000
  24748 WAT       -34.6820  -71.6660   -2.8330 O         1 <0>         0.0000
  24749 WAT       -34.6820  -71.6660   -2.5830 O         1 <0>         0.0000
  24750 WAT       -34.6820  -71.6660   -2.3330 O         1 <0>         0.0000
  24751 WAT       -34.6820  -71.6660   -2.0830 O         1 <0>         0.0000
  24752 WAT       -34.6820  -71.6660   -1.8330 O         1 <0>         0.0000
  24753 WAT       -34.6820  -71.6660   -1.5830 O         1 <0>         0.0000
  24754 WAT       -34.6820  -71.6660   -1.3330 O         1 <0>         0.0000
  24755 WAT       -34.6820  -71.6660   -1.0830 O         1 <0>         0.0000
  24756 WAT       -34.6820  -71.6660   -0.8330 O         1 <0>         0.0000
  24757 WAT       -34.6820  -71.6660   -0.5830 O         1 <0>         0.0000
  24758 WAT       -34.6820  -71.6660   -0.3330 O         1 <0>         0.0000
  24759 WAT       -34.6820  -71.6660   -0.0830 O         1 <0>         0.0000
  24760 WAT       -34.6820  -71.4160   -9.8330 O         1 <0>         0.0000
  24761 WAT       -34.6820  -71.4160   -9.5830 O         1 <0>         0.0000
  24762 WAT       -34.6820  -71.4160   -9.3330 O         1 <0>         0.0000
  24763 WAT       -34.6820  -71.4160   -9.0830 O         1 <0>         0.0000
  24764 WAT       -34.6820  -71.4160   -8.8330 O         1 <0>         0.0000
  24765 WAT       -34.6820  -71.4160   -8.5830 O         1 <0>         0.0002
  24766 WAT       -34.6820  -71.4160   -8.3330 O         1 <0>         0.0057
  24767 WAT       -34.6820  -71.4160   -8.0830 O         1 <0>         0.0349
  24768 WAT       -34.6820  -71.4160   -7.8330 O         1 <0>         0.1125
  24769 WAT       -34.6820  -71.4160   -7.5830 O         1 <0>         0.2217
  24770 WAT       -34.6820  -71.4160   -7.3330 O         1 <0>         0.2741
  24771 WAT       -34.6820  -71.4160   -7.0830 O         1 <0>         0.2146
  24772 WAT       -34.6820  -71.4160   -6.8330 O         1 <0>         0.1071
  24773 WAT       -34.6820  -71.4160   -6.5830 O         1 <0>         0.0332
  24774 WAT       -34.6820  -71.4160   -6.3330 O         1 <0>         0.0052
  24775 WAT       -34.6820  -71.4160   -6.0830 O         1 <0>         0.0003
  24776 WAT       -34.6820  -71.4160   -5.8330 O         1 <0>         0.0000
  24777 WAT       -34.6820  -71.4160   -5.5830 O         1 <0>         0.0000
  24778 WAT       -34.6820  -71.4160   -5.3330 O         1 <0>         0.0000
  24779 WAT       -34.6820  -71.4160   -5.0830 O         1 <0>         0.0000
  24780 WAT       -34.6820  -71.4160   -4.8330 O         1 <0>         0.0000
  24781 WAT       -34.6820  -71.4160   -4.5830 O         1 <0>         0.0000
  24782 WAT       -34.6820  -71.4160   -4.3330 O         1 <0>         0.0000
  24783 WAT       -34.6820  -71.4160   -4.0830 O         1 <0>         0.0000
  24784 WAT       -34.6820  -71.4160   -3.8330 O         1 <0>         0.0000
  24785 WAT       -34.6820  -71.4160   -3.5830 O         1 <0>         0.0000
  24786 WAT       -34.6820  -71.4160   -3.3330 O         1 <0>         0.0000
  24787 WAT       -34.6820  -71.4160   -3.0830 O         1 <0>         0.0000
  24788 WAT       -34.6820  -71.4160   -2.8330 O         1 <0>         0.0000
  24789 WAT       -34.6820  -71.4160   -2.5830 O         1 <0>         0.0000
  24790 WAT       -34.6820  -71.4160   -2.3330 O         1 <0>         0.0000
  24791 WAT       -34.6820  -71.4160   -2.0830 O         1 <0>         0.0000
  24792 WAT       -34.6820  -71.4160   -1.8330 O         1 <0>         0.0000
  24793 WAT       -34.6820  -71.4160   -1.5830 O         1 <0>         0.0000
  24794 WAT       -34.6820  -71.4160   -1.3330 O         1 <0>         0.0000
  24795 WAT       -34.6820  -71.4160   -1.0830 O         1 <0>         0.0000
  24796 WAT       -34.6820  -71.4160   -0.8330 O         1 <0>         0.0000
  24797 WAT       -34.6820  -71.4160   -0.5830 O         1 <0>         0.0000
  24798 WAT       -34.6820  -71.4160   -0.3330 O         1 <0>         0.0000
  24799 WAT       -34.6820  -71.4160   -0.0830 O         1 <0>         0.0000
  24800 WAT       -34.6820  -71.1660   -9.8330 O         1 <0>         0.0000
  24801 WAT       -34.6820  -71.1660   -9.5830 O         1 <0>         0.0000
  24802 WAT       -34.6820  -71.1660   -9.3330 O         1 <0>         0.0000
  24803 WAT       -34.6820  -71.1660   -9.0830 O         1 <0>         0.0000
  24804 WAT       -34.6820  -71.1660   -8.8330 O         1 <0>         0.0000
  24805 WAT       -34.6820  -71.1660   -8.5830 O         1 <0>         0.0001
  24806 WAT       -34.6820  -71.1660   -8.3330 O         1 <0>         0.0030
  24807 WAT       -34.6820  -71.1660   -8.0830 O         1 <0>         0.0190
  24808 WAT       -34.6820  -71.1660   -7.8330 O         1 <0>         0.0608
  24809 WAT       -34.6820  -71.1660   -7.5830 O         1 <0>         0.1175
  24810 WAT       -34.6820  -71.1660   -7.3330 O         1 <0>         0.1417
  24811 WAT       -34.6820  -71.1660   -7.0830 O         1 <0>         0.1077
  24812 WAT       -34.6820  -71.1660   -6.8330 O         1 <0>         0.0515
  24813 WAT       -34.6820  -71.1660   -6.5830 O         1 <0>         0.0145
  24814 WAT       -34.6820  -71.1660   -6.3330 O         1 <0>         0.0018
  24815 WAT       -34.6820  -71.1660   -6.0830 O         1 <0>         0.0001
  24816 WAT       -34.6820  -71.1660   -5.8330 O         1 <0>         0.0000
  24817 WAT       -34.6820  -71.1660   -5.5830 O         1 <0>         0.0000
  24818 WAT       -34.6820  -71.1660   -5.3330 O         1 <0>         0.0000
  24819 WAT       -34.6820  -71.1660   -5.0830 O         1 <0>         0.0000
  24820 WAT       -34.6820  -71.1660   -4.8330 O         1 <0>         0.0000
  24821 WAT       -34.6820  -71.1660   -4.5830 O         1 <0>         0.0000
  24822 WAT       -34.6820  -71.1660   -4.3330 O         1 <0>         0.0000
  24823 WAT       -34.6820  -71.1660   -4.0830 O         1 <0>         0.0000
  24824 WAT       -34.6820  -71.1660   -3.8330 O         1 <0>         0.0000
  24825 WAT       -34.6820  -71.1660   -3.5830 O         1 <0>         0.0000
  24826 WAT       -34.6820  -71.1660   -3.3330 O         1 <0>         0.0000
  24827 WAT       -34.6820  -71.1660   -3.0830 O         1 <0>         0.0000
  24828 WAT       -34.6820  -71.1660   -2.8330 O         1 <0>         0.0000
  24829 WAT       -34.6820  -71.1660   -2.5830 O         1 <0>         0.0000
  24830 WAT       -34.6820  -71.1660   -2.3330 O         1 <0>         0.0000
  24831 WAT       -34.6820  -71.1660   -2.0830 O         1 <0>         0.0000
  24832 WAT       -34.6820  -71.1660   -1.8330 O         1 <0>         0.0000
  24833 WAT       -34.6820  -71.1660   -1.5830 O         1 <0>         0.0000
  24834 WAT       -34.6820  -71.1660   -1.3330 O         1 <0>         0.0000
  24835 WAT       -34.6820  -71.1660   -1.0830 O         1 <0>         0.0000
  24836 WAT       -34.6820  -71.1660   -0.8330 O         1 <0>         0.0000
  24837 WAT       -34.6820  -71.1660   -0.5830 O         1 <0>         0.0000
  24838 WAT       -34.6820  -71.1660   -0.3330 O         1 <0>         0.0000
  24839 WAT       -34.6820  -71.1660   -0.0830 O         1 <0>         0.0000
  24840 WAT       -34.6820  -70.9160   -9.8330 O         1 <0>         0.0000
  24841 WAT       -34.6820  -70.9160   -9.5830 O         1 <0>         0.0000
  24842 WAT       -34.6820  -70.9160   -9.3330 O         1 <0>         0.0000
  24843 WAT       -34.6820  -70.9160   -9.0830 O         1 <0>         0.0000
  24844 WAT       -34.6820  -70.9160   -8.8330 O         1 <0>         0.0000
  24845 WAT       -34.6820  -70.9160   -8.5830 O         1 <0>         0.0000
  24846 WAT       -34.6820  -70.9160   -8.3330 O         1 <0>         0.0010
  24847 WAT       -34.6820  -70.9160   -8.0830 O         1 <0>         0.0073
  24848 WAT       -34.6820  -70.9160   -7.8330 O         1 <0>         0.0241
  24849 WAT       -34.6820  -70.9160   -7.5830 O         1 <0>         0.0465
  24850 WAT       -34.6820  -70.9160   -7.3330 O         1 <0>         0.0557
  24851 WAT       -34.6820  -70.9160   -7.0830 O         1 <0>         0.0418
  24852 WAT       -34.6820  -70.9160   -6.8330 O         1 <0>         0.0193
  24853 WAT       -34.6820  -70.9160   -6.5830 O         1 <0>         0.0050
  24854 WAT       -34.6820  -70.9160   -6.3330 O         1 <0>         0.0006
  24855 WAT       -34.6820  -70.9160   -6.0830 O         1 <0>         0.0000
  24856 WAT       -34.6820  -70.9160   -5.8330 O         1 <0>         0.0000
  24857 WAT       -34.6820  -70.9160   -5.5830 O         1 <0>         0.0000
  24858 WAT       -34.6820  -70.9160   -5.3330 O         1 <0>         0.0000
  24859 WAT       -34.6820  -70.9160   -5.0830 O         1 <0>         0.0000
  24860 WAT       -34.6820  -70.9160   -4.8330 O         1 <0>         0.0000
  24861 WAT       -34.6820  -70.9160   -4.5830 O         1 <0>         0.0000
  24862 WAT       -34.6820  -70.9160   -4.3330 O         1 <0>         0.0000
  24863 WAT       -34.6820  -70.9160   -4.0830 O         1 <0>         0.0000
  24864 WAT       -34.6820  -70.9160   -3.8330 O         1 <0>         0.0000
  24865 WAT       -34.6820  -70.9160   -3.5830 O         1 <0>         0.0000
  24866 WAT       -34.6820  -70.9160   -3.3330 O         1 <0>         0.0000
  24867 WAT       -34.6820  -70.9160   -3.0830 O         1 <0>         0.0000
  24868 WAT       -34.6820  -70.9160   -2.8330 O         1 <0>         0.0000
  24869 WAT       -34.6820  -70.9160   -2.5830 O         1 <0>         0.0000
  24870 WAT       -34.6820  -70.9160   -2.3330 O         1 <0>         0.0000
  24871 WAT       -34.6820  -70.9160   -2.0830 O         1 <0>         0.0000
  24872 WAT       -34.6820  -70.9160   -1.8330 O         1 <0>         0.0000
  24873 WAT       -34.6820  -70.9160   -1.5830 O         1 <0>         0.0000
  24874 WAT       -34.6820  -70.9160   -1.3330 O         1 <0>         0.0000
  24875 WAT       -34.6820  -70.9160   -1.0830 O         1 <0>         0.0000
  24876 WAT       -34.6820  -70.9160   -0.8330 O         1 <0>         0.0000
  24877 WAT       -34.6820  -70.9160   -0.5830 O         1 <0>         0.0000
  24878 WAT       -34.6820  -70.9160   -0.3330 O         1 <0>         0.0000
  24879 WAT       -34.6820  -70.9160   -0.0830 O         1 <0>         0.0000
  24880 WAT       -34.6820  -70.6660   -9.8330 O         1 <0>         0.0000
  24881 WAT       -34.6820  -70.6660   -9.5830 O         1 <0>         0.0000
  24882 WAT       -34.6820  -70.6660   -9.3330 O         1 <0>         0.0000
  24883 WAT       -34.6820  -70.6660   -9.0830 O         1 <0>         0.0000
  24884 WAT       -34.6820  -70.6660   -8.8330 O         1 <0>         0.0000
  24885 WAT       -34.6820  -70.6660   -8.5830 O         1 <0>         0.0000
  24886 WAT       -34.6820  -70.6660   -8.3330 O         1 <0>         0.0002
  24887 WAT       -34.6820  -70.6660   -8.0830 O         1 <0>         0.0019
  24888 WAT       -34.6820  -70.6660   -7.8330 O         1 <0>         0.0068
  24889 WAT       -34.6820  -70.6660   -7.5830 O         1 <0>         0.0135
  24890 WAT       -34.6820  -70.6660   -7.3330 O         1 <0>         0.0164
  24891 WAT       -34.6820  -70.6660   -7.0830 O         1 <0>         0.0124
  24892 WAT       -34.6820  -70.6660   -6.8330 O         1 <0>         0.0057
  24893 WAT       -34.6820  -70.6660   -6.5830 O         1 <0>         0.0015
  24894 WAT       -34.6820  -70.6660   -6.3330 O         1 <0>         0.0002
  24895 WAT       -34.6820  -70.6660   -6.0830 O         1 <0>         0.0000
  24896 WAT       -34.6820  -70.6660   -5.8330 O         1 <0>         0.0000
  24897 WAT       -34.6820  -70.6660   -5.5830 O         1 <0>         0.0000
  24898 WAT       -34.6820  -70.6660   -5.3330 O         1 <0>         0.0000
  24899 WAT       -34.6820  -70.6660   -5.0830 O         1 <0>         0.0000
  24900 WAT       -34.6820  -70.6660   -4.8330 O         1 <0>         0.0000
  24901 WAT       -34.6820  -70.6660   -4.5830 O         1 <0>         0.0000
  24902 WAT       -34.6820  -70.6660   -4.3330 O         1 <0>         0.0000
  24903 WAT       -34.6820  -70.6660   -4.0830 O         1 <0>         0.0000
  24904 WAT       -34.6820  -70.6660   -3.8330 O         1 <0>         0.0000
  24905 WAT       -34.6820  -70.6660   -3.5830 O         1 <0>         0.0000
  24906 WAT       -34.6820  -70.6660   -3.3330 O         1 <0>         0.0000
  24907 WAT       -34.6820  -70.6660   -3.0830 O         1 <0>         0.0000
  24908 WAT       -34.6820  -70.6660   -2.8330 O         1 <0>         0.0000
  24909 WAT       -34.6820  -70.6660   -2.5830 O         1 <0>         0.0000
  24910 WAT       -34.6820  -70.6660   -2.3330 O         1 <0>         0.0000
  24911 WAT       -34.6820  -70.6660   -2.0830 O         1 <0>         0.0000
  24912 WAT       -34.6820  -70.6660   -1.8330 O         1 <0>         0.0000
  24913 WAT       -34.6820  -70.6660   -1.5830 O         1 <0>         0.0000
  24914 WAT       -34.6820  -70.6660   -1.3330 O         1 <0>         0.0000
  24915 WAT       -34.6820  -70.6660   -1.0830 O         1 <0>         0.0000
  24916 WAT       -34.6820  -70.6660   -0.8330 O         1 <0>         0.0000
  24917 WAT       -34.6820  -70.6660   -0.5830 O         1 <0>         0.0000
  24918 WAT       -34.6820  -70.6660   -0.3330 O         1 <0>         0.0000
  24919 WAT       -34.6820  -70.6660   -0.0830 O         1 <0>         0.0000
  24920 WAT       -34.6820  -70.4160   -9.8330 O         1 <0>         0.0000
  24921 WAT       -34.6820  -70.4160   -9.5830 O         1 <0>         0.0000
  24922 WAT       -34.6820  -70.4160   -9.3330 O         1 <0>         0.0000
  24923 WAT       -34.6820  -70.4160   -9.0830 O         1 <0>         0.0000
  24924 WAT       -34.6820  -70.4160   -8.8330 O         1 <0>         0.0000
  24925 WAT       -34.6820  -70.4160   -8.5830 O         1 <0>         0.0000
  24926 WAT       -34.6820  -70.4160   -8.3330 O         1 <0>         0.0000
  24927 WAT       -34.6820  -70.4160   -8.0830 O         1 <0>         0.0003
  24928 WAT       -34.6820  -70.4160   -7.8330 O         1 <0>         0.0012
  24929 WAT       -34.6820  -70.4160   -7.5830 O         1 <0>         0.0027
  24930 WAT       -34.6820  -70.4160   -7.3330 O         1 <0>         0.0036
  24931 WAT       -34.6820  -70.4160   -7.0830 O         1 <0>         0.0029
  24932 WAT       -34.6820  -70.4160   -6.8330 O         1 <0>         0.0015
  24933 WAT       -34.6820  -70.4160   -6.5830 O         1 <0>         0.0005
  24934 WAT       -34.6820  -70.4160   -6.3330 O         1 <0>         0.0001
  24935 WAT       -34.6820  -70.4160   -6.0830 O         1 <0>         0.0000
  24936 WAT       -34.6820  -70.4160   -5.8330 O         1 <0>         0.0000
  24937 WAT       -34.6820  -70.4160   -5.5830 O         1 <0>         0.0000
  24938 WAT       -34.6820  -70.4160   -5.3330 O         1 <0>         0.0000
  24939 WAT       -34.6820  -70.4160   -5.0830 O         1 <0>         0.0000
  24940 WAT       -34.6820  -70.4160   -4.8330 O         1 <0>         0.0000
  24941 WAT       -34.6820  -70.4160   -4.5830 O         1 <0>         0.0000
  24942 WAT       -34.6820  -70.4160   -4.3330 O         1 <0>         0.0000
  24943 WAT       -34.6820  -70.4160   -4.0830 O         1 <0>         0.0000
  24944 WAT       -34.6820  -70.4160   -3.8330 O         1 <0>         0.0000
  24945 WAT       -34.6820  -70.4160   -3.5830 O         1 <0>         0.0000
  24946 WAT       -34.6820  -70.4160   -3.3330 O         1 <0>         0.0000
  24947 WAT       -34.6820  -70.4160   -3.0830 O         1 <0>         0.0000
  24948 WAT       -34.6820  -70.4160   -2.8330 O         1 <0>         0.0000
  24949 WAT       -34.6820  -70.4160   -2.5830 O         1 <0>         0.0000
  24950 WAT       -34.6820  -70.4160   -2.3330 O         1 <0>         0.0000
  24951 WAT       -34.6820  -70.4160   -2.0830 O         1 <0>         0.0000
  24952 WAT       -34.6820  -70.4160   -1.8330 O         1 <0>         0.0000
  24953 WAT       -34.6820  -70.4160   -1.5830 O         1 <0>         0.0000
  24954 WAT       -34.6820  -70.4160   -1.3330 O         1 <0>         0.0000
  24955 WAT       -34.6820  -70.4160   -1.0830 O         1 <0>         0.0000
  24956 WAT       -34.6820  -70.4160   -0.8330 O         1 <0>         0.0000
  24957 WAT       -34.6820  -70.4160   -0.5830 O         1 <0>         0.0000
  24958 WAT       -34.6820  -70.4160   -0.3330 O         1 <0>         0.0000
  24959 WAT       -34.6820  -70.4160   -0.0830 O         1 <0>         0.0000
  24960 WAT       -34.6820  -70.1660   -9.8330 O         1 <0>         0.0000
  24961 WAT       -34.6820  -70.1660   -9.5830 O         1 <0>         0.0000
  24962 WAT       -34.6820  -70.1660   -9.3330 O         1 <0>         0.0000
  24963 WAT       -34.6820  -70.1660   -9.0830 O         1 <0>         0.0000
  24964 WAT       -34.6820  -70.1660   -8.8330 O         1 <0>         0.0000
  24965 WAT       -34.6820  -70.1660   -8.5830 O         1 <0>         0.0000
  24966 WAT       -34.6820  -70.1660   -8.3330 O         1 <0>         0.0000
  24967 WAT       -34.6820  -70.1660   -8.0830 O         1 <0>         0.0000
  24968 WAT       -34.6820  -70.1660   -7.8330 O         1 <0>         0.0001
  24969 WAT       -34.6820  -70.1660   -7.5830 O         1 <0>         0.0004
  24970 WAT       -34.6820  -70.1660   -7.3330 O         1 <0>         0.0005
  24971 WAT       -34.6820  -70.1660   -7.0830 O         1 <0>         0.0005
  24972 WAT       -34.6820  -70.1660   -6.8330 O         1 <0>         0.0003
  24973 WAT       -34.6820  -70.1660   -6.5830 O         1 <0>         0.0001
  24974 WAT       -34.6820  -70.1660   -6.3330 O         1 <0>         0.0000
  24975 WAT       -34.6820  -70.1660   -6.0830 O         1 <0>         0.0000
  24976 WAT       -34.6820  -70.1660   -5.8330 O         1 <0>         0.0000
  24977 WAT       -34.6820  -70.1660   -5.5830 O         1 <0>         0.0000
  24978 WAT       -34.6820  -70.1660   -5.3330 O         1 <0>         0.0000
  24979 WAT       -34.6820  -70.1660   -5.0830 O         1 <0>         0.0000
  24980 WAT       -34.6820  -70.1660   -4.8330 O         1 <0>         0.0000
  24981 WAT       -34.6820  -70.1660   -4.5830 O         1 <0>         0.0000
  24982 WAT       -34.6820  -70.1660   -4.3330 O         1 <0>         0.0000
  24983 WAT       -34.6820  -70.1660   -4.0830 O         1 <0>         0.0000
  24984 WAT       -34.6820  -70.1660   -3.8330 O         1 <0>         0.0000
  24985 WAT       -34.6820  -70.1660   -3.5830 O         1 <0>         0.0000
  24986 WAT       -34.6820  -70.1660   -3.3330 O         1 <0>         0.0000
  24987 WAT       -34.6820  -70.1660   -3.0830 O         1 <0>         0.0000
  24988 WAT       -34.6820  -70.1660   -2.8330 O         1 <0>         0.0000
  24989 WAT       -34.6820  -70.1660   -2.5830 O         1 <0>         0.0000
  24990 WAT       -34.6820  -70.1660   -2.3330 O         1 <0>         0.0000
  24991 WAT       -34.6820  -70.1660   -2.0830 O         1 <0>         0.0000
  24992 WAT       -34.6820  -70.1660   -1.8330 O         1 <0>         0.0000
  24993 WAT       -34.6820  -70.1660   -1.5830 O         1 <0>         0.0000
  24994 WAT       -34.6820  -70.1660   -1.3330 O         1 <0>         0.0000
  24995 WAT       -34.6820  -70.1660   -1.0830 O         1 <0>         0.0000
  24996 WAT       -34.6820  -70.1660   -0.8330 O         1 <0>         0.0000
  24997 WAT       -34.6820  -70.1660   -0.5830 O         1 <0>         0.0000
  24998 WAT       -34.6820  -70.1660   -0.3330 O         1 <0>         0.0000
  24999 WAT       -34.6820  -70.1660   -0.0830 O         1 <0>         0.0000
  25000 WAT       -34.6820  -69.9160   -9.8330 O         1 <0>         0.0000
  25001 WAT       -34.6820  -69.9160   -9.5830 O         1 <0>         0.0000
  25002 WAT       -34.6820  -69.9160   -9.3330 O         1 <0>         0.0000
  25003 WAT       -34.6820  -69.9160   -9.0830 O         1 <0>         0.0000
  25004 WAT       -34.6820  -69.9160   -8.8330 O         1 <0>         0.0000
  25005 WAT       -34.6820  -69.9160   -8.5830 O         1 <0>         0.0000
  25006 WAT       -34.6820  -69.9160   -8.3330 O         1 <0>         0.0000
  25007 WAT       -34.6820  -69.9160   -8.0830 O         1 <0>         0.0000
  25008 WAT       -34.6820  -69.9160   -7.8330 O         1 <0>         0.0000
  25009 WAT       -34.6820  -69.9160   -7.5830 O         1 <0>         0.0000
  25010 WAT       -34.6820  -69.9160   -7.3330 O         1 <0>         0.0001
  25011 WAT       -34.6820  -69.9160   -7.0830 O         1 <0>         0.0001
  25012 WAT       -34.6820  -69.9160   -6.8330 O         1 <0>         0.0001
  25013 WAT       -34.6820  -69.9160   -6.5830 O         1 <0>         0.0000
  25014 WAT       -34.6820  -69.9160   -6.3330 O         1 <0>         0.0000
  25015 WAT       -34.6820  -69.9160   -6.0830 O         1 <0>         0.0000
  25016 WAT       -34.6820  -69.9160   -5.8330 O         1 <0>         0.0000
  25017 WAT       -34.6820  -69.9160   -5.5830 O         1 <0>         0.0000
  25018 WAT       -34.6820  -69.9160   -5.3330 O         1 <0>         0.0000
  25019 WAT       -34.6820  -69.9160   -5.0830 O         1 <0>         0.0000
  25020 WAT       -34.6820  -69.9160   -4.8330 O         1 <0>         0.0000
  25021 WAT       -34.6820  -69.9160   -4.5830 O         1 <0>         0.0000
  25022 WAT       -34.6820  -69.9160   -4.3330 O         1 <0>         0.0000
  25023 WAT       -34.6820  -69.9160   -4.0830 O         1 <0>         0.0000
  25024 WAT       -34.6820  -69.9160   -3.8330 O         1 <0>         0.0000
  25025 WAT       -34.6820  -69.9160   -3.5830 O         1 <0>         0.0000
  25026 WAT       -34.6820  -69.9160   -3.3330 O         1 <0>         0.0000
  25027 WAT       -34.6820  -69.9160   -3.0830 O         1 <0>         0.0000
  25028 WAT       -34.6820  -69.9160   -2.8330 O         1 <0>         0.0000
  25029 WAT       -34.6820  -69.9160   -2.5830 O         1 <0>         0.0000
  25030 WAT       -34.6820  -69.9160   -2.3330 O         1 <0>         0.0000
  25031 WAT       -34.6820  -69.9160   -2.0830 O         1 <0>         0.0000
  25032 WAT       -34.6820  -69.9160   -1.8330 O         1 <0>         0.0000
  25033 WAT       -34.6820  -69.9160   -1.5830 O         1 <0>         0.0000
  25034 WAT       -34.6820  -69.9160   -1.3330 O         1 <0>         0.0000
  25035 WAT       -34.6820  -69.9160   -1.0830 O         1 <0>         0.0000
  25036 WAT       -34.6820  -69.9160   -0.8330 O         1 <0>         0.0000
  25037 WAT       -34.6820  -69.9160   -0.5830 O         1 <0>         0.0000
  25038 WAT       -34.6820  -69.9160   -0.3330 O         1 <0>         0.0000
  25039 WAT       -34.6820  -69.9160   -0.0830 O         1 <0>         0.0000
  25040 WAT       -34.6820  -69.6660   -9.8330 O         1 <0>         0.0000
  25041 WAT       -34.6820  -69.6660   -9.5830 O         1 <0>         0.0000
  25042 WAT       -34.6820  -69.6660   -9.3330 O         1 <0>         0.0000
  25043 WAT       -34.6820  -69.6660   -9.0830 O         1 <0>         0.0000
  25044 WAT       -34.6820  -69.6660   -8.8330 O         1 <0>         0.0000
  25045 WAT       -34.6820  -69.6660   -8.5830 O         1 <0>         0.0000
  25046 WAT       -34.6820  -69.6660   -8.3330 O         1 <0>         0.0000
  25047 WAT       -34.6820  -69.6660   -8.0830 O         1 <0>         0.0000
  25048 WAT       -34.6820  -69.6660   -7.8330 O         1 <0>         0.0000
  25049 WAT       -34.6820  -69.6660   -7.5830 O         1 <0>         0.0000
  25050 WAT       -34.6820  -69.6660   -7.3330 O         1 <0>         0.0000
  25051 WAT       -34.6820  -69.6660   -7.0830 O         1 <0>         0.0000
  25052 WAT       -34.6820  -69.6660   -6.8330 O         1 <0>         0.0000
  25053 WAT       -34.6820  -69.6660   -6.5830 O         1 <0>         0.0000
  25054 WAT       -34.6820  -69.6660   -6.3330 O         1 <0>         0.0000
  25055 WAT       -34.6820  -69.6660   -6.0830 O         1 <0>         0.0000
  25056 WAT       -34.6820  -69.6660   -5.8330 O         1 <0>         0.0000
  25057 WAT       -34.6820  -69.6660   -5.5830 O         1 <0>         0.0000
  25058 WAT       -34.6820  -69.6660   -5.3330 O         1 <0>         0.0000
  25059 WAT       -34.6820  -69.6660   -5.0830 O         1 <0>         0.0000
  25060 WAT       -34.6820  -69.6660   -4.8330 O         1 <0>         0.0000
  25061 WAT       -34.6820  -69.6660   -4.5830 O         1 <0>         0.0000
  25062 WAT       -34.6820  -69.6660   -4.3330 O         1 <0>         0.0000
  25063 WAT       -34.6820  -69.6660   -4.0830 O         1 <0>         0.0000
  25064 WAT       -34.6820  -69.6660   -3.8330 O         1 <0>         0.0000
  25065 WAT       -34.6820  -69.6660   -3.5830 O         1 <0>         0.0000
  25066 WAT       -34.6820  -69.6660   -3.3330 O         1 <0>         0.0000
  25067 WAT       -34.6820  -69.6660   -3.0830 O         1 <0>         0.0000
  25068 WAT       -34.6820  -69.6660   -2.8330 O         1 <0>         0.0000
  25069 WAT       -34.6820  -69.6660   -2.5830 O         1 <0>         0.0000
  25070 WAT       -34.6820  -69.6660   -2.3330 O         1 <0>         0.0000
  25071 WAT       -34.6820  -69.6660   -2.0830 O         1 <0>         0.0000
  25072 WAT       -34.6820  -69.6660   -1.8330 O         1 <0>         0.0000
  25073 WAT       -34.6820  -69.6660   -1.5830 O         1 <0>         0.0000
  25074 WAT       -34.6820  -69.6660   -1.3330 O         1 <0>         0.0000
  25075 WAT       -34.6820  -69.6660   -1.0830 O         1 <0>         0.0000
  25076 WAT       -34.6820  -69.6660   -0.8330 O         1 <0>         0.0000
  25077 WAT       -34.6820  -69.6660   -0.5830 O         1 <0>         0.0000
  25078 WAT       -34.6820  -69.6660   -0.3330 O         1 <0>         0.0000
  25079 WAT       -34.6820  -69.6660   -0.0830 O         1 <0>         0.0000
  25080 WAT       -34.6820  -69.4160   -9.8330 O         1 <0>         0.0000
  25081 WAT       -34.6820  -69.4160   -9.5830 O         1 <0>         0.0000
  25082 WAT       -34.6820  -69.4160   -9.3330 O         1 <0>         0.0000
  25083 WAT       -34.6820  -69.4160   -9.0830 O         1 <0>         0.0000
  25084 WAT       -34.6820  -69.4160   -8.8330 O         1 <0>         0.0000
  25085 WAT       -34.6820  -69.4160   -8.5830 O         1 <0>         0.0000
  25086 WAT       -34.6820  -69.4160   -8.3330 O         1 <0>         0.0000
  25087 WAT       -34.6820  -69.4160   -8.0830 O         1 <0>         0.0000
  25088 WAT       -34.6820  -69.4160   -7.8330 O         1 <0>         0.0000
  25089 WAT       -34.6820  -69.4160   -7.5830 O         1 <0>         0.0000
  25090 WAT       -34.6820  -69.4160   -7.3330 O         1 <0>         0.0000
  25091 WAT       -34.6820  -69.4160   -7.0830 O         1 <0>         0.0000
  25092 WAT       -34.6820  -69.4160   -6.8330 O         1 <0>         0.0000
  25093 WAT       -34.6820  -69.4160   -6.5830 O         1 <0>         0.0000
  25094 WAT       -34.6820  -69.4160   -6.3330 O         1 <0>         0.0000
  25095 WAT       -34.6820  -69.4160   -6.0830 O         1 <0>         0.0000
  25096 WAT       -34.6820  -69.4160   -5.8330 O         1 <0>         0.0000
  25097 WAT       -34.6820  -69.4160   -5.5830 O         1 <0>         0.0000
  25098 WAT       -34.6820  -69.4160   -5.3330 O         1 <0>         0.0000
  25099 WAT       -34.6820  -69.4160   -5.0830 O         1 <0>         0.0000
  25100 WAT       -34.6820  -69.4160   -4.8330 O         1 <0>         0.0000
  25101 WAT       -34.6820  -69.4160   -4.5830 O         1 <0>         0.0000
  25102 WAT       -34.6820  -69.4160   -4.3330 O         1 <0>         0.0000
  25103 WAT       -34.6820  -69.4160   -4.0830 O         1 <0>         0.0000
  25104 WAT       -34.6820  -69.4160   -3.8330 O         1 <0>         0.0000
  25105 WAT       -34.6820  -69.4160   -3.5830 O         1 <0>         0.0000
  25106 WAT       -34.6820  -69.4160   -3.3330 O         1 <0>         0.0000
  25107 WAT       -34.6820  -69.4160   -3.0830 O         1 <0>         0.0000
  25108 WAT       -34.6820  -69.4160   -2.8330 O         1 <0>         0.0000
  25109 WAT       -34.6820  -69.4160   -2.5830 O         1 <0>         0.0000
  25110 WAT       -34.6820  -69.4160   -2.3330 O         1 <0>         0.0000
  25111 WAT       -34.6820  -69.4160   -2.0830 O         1 <0>         0.0000
  25112 WAT       -34.6820  -69.4160   -1.8330 O         1 <0>         0.0000
  25113 WAT       -34.6820  -69.4160   -1.5830 O         1 <0>         0.0000
  25114 WAT       -34.6820  -69.4160   -1.3330 O         1 <0>         0.0000
  25115 WAT       -34.6820  -69.4160   -1.0830 O         1 <0>         0.0000
  25116 WAT       -34.6820  -69.4160   -0.8330 O         1 <0>         0.0000
  25117 WAT       -34.6820  -69.4160   -0.5830 O         1 <0>         0.0000
  25118 WAT       -34.6820  -69.4160   -0.3330 O         1 <0>         0.0000
  25119 WAT       -34.6820  -69.4160   -0.0830 O         1 <0>         0.0000
  25120 WAT       -34.6820  -69.1660   -9.8330 O         1 <0>         0.0000
  25121 WAT       -34.6820  -69.1660   -9.5830 O         1 <0>         0.0000
  25122 WAT       -34.6820  -69.1660   -9.3330 O         1 <0>         0.0000
  25123 WAT       -34.6820  -69.1660   -9.0830 O         1 <0>         0.0000
  25124 WAT       -34.6820  -69.1660   -8.8330 O         1 <0>         0.0000
  25125 WAT       -34.6820  -69.1660   -8.5830 O         1 <0>         0.0000
  25126 WAT       -34.6820  -69.1660   -8.3330 O         1 <0>         0.0000
  25127 WAT       -34.6820  -69.1660   -8.0830 O         1 <0>         0.0000
  25128 WAT       -34.6820  -69.1660   -7.8330 O         1 <0>         0.0000
  25129 WAT       -34.6820  -69.1660   -7.5830 O         1 <0>         0.0000
  25130 WAT       -34.6820  -69.1660   -7.3330 O         1 <0>         0.0000
  25131 WAT       -34.6820  -69.1660   -7.0830 O         1 <0>         0.0000
  25132 WAT       -34.6820  -69.1660   -6.8330 O         1 <0>         0.0000
  25133 WAT       -34.6820  -69.1660   -6.5830 O         1 <0>         0.0000
  25134 WAT       -34.6820  -69.1660   -6.3330 O         1 <0>         0.0000
  25135 WAT       -34.6820  -69.1660   -6.0830 O         1 <0>         0.0000
  25136 WAT       -34.6820  -69.1660   -5.8330 O         1 <0>         0.0000
  25137 WAT       -34.6820  -69.1660   -5.5830 O         1 <0>         0.0000
  25138 WAT       -34.6820  -69.1660   -5.3330 O         1 <0>         0.0000
  25139 WAT       -34.6820  -69.1660   -5.0830 O         1 <0>         0.0000
  25140 WAT       -34.6820  -69.1660   -4.8330 O         1 <0>         0.0000
  25141 WAT       -34.6820  -69.1660   -4.5830 O         1 <0>         0.0000
  25142 WAT       -34.6820  -69.1660   -4.3330 O         1 <0>         0.0000
  25143 WAT       -34.6820  -69.1660   -4.0830 O         1 <0>         0.0000
  25144 WAT       -34.6820  -69.1660   -3.8330 O         1 <0>         0.0000
  25145 WAT       -34.6820  -69.1660   -3.5830 O         1 <0>         0.0000
  25146 WAT       -34.6820  -69.1660   -3.3330 O         1 <0>         0.0000
  25147 WAT       -34.6820  -69.1660   -3.0830 O         1 <0>         0.0000
  25148 WAT       -34.6820  -69.1660   -2.8330 O         1 <0>         0.0000
  25149 WAT       -34.6820  -69.1660   -2.5830 O         1 <0>         0.0000
  25150 WAT       -34.6820  -69.1660   -2.3330 O         1 <0>         0.0000
  25151 WAT       -34.6820  -69.1660   -2.0830 O         1 <0>         0.0000
  25152 WAT       -34.6820  -69.1660   -1.8330 O         1 <0>         0.0000
  25153 WAT       -34.6820  -69.1660   -1.5830 O         1 <0>         0.0000
  25154 WAT       -34.6820  -69.1660   -1.3330 O         1 <0>         0.0000
  25155 WAT       -34.6820  -69.1660   -1.0830 O         1 <0>         0.0000
  25156 WAT       -34.6820  -69.1660   -0.8330 O         1 <0>         0.0000
  25157 WAT       -34.6820  -69.1660   -0.5830 O         1 <0>         0.0000
  25158 WAT       -34.6820  -69.1660   -0.3330 O         1 <0>         0.0000
  25159 WAT       -34.6820  -69.1660   -0.0830 O         1 <0>         0.0000
  25160 WAT       -34.6820  -68.9160   -9.8330 O         1 <0>         0.0000
  25161 WAT       -34.6820  -68.9160   -9.5830 O         1 <0>         0.0000
  25162 WAT       -34.6820  -68.9160   -9.3330 O         1 <0>         0.0000
  25163 WAT       -34.6820  -68.9160   -9.0830 O         1 <0>         0.0000
  25164 WAT       -34.6820  -68.9160   -8.8330 O         1 <0>         0.0000
  25165 WAT       -34.6820  -68.9160   -8.5830 O         1 <0>         0.0000
  25166 WAT       -34.6820  -68.9160   -8.3330 O         1 <0>         0.0000
  25167 WAT       -34.6820  -68.9160   -8.0830 O         1 <0>         0.0000
  25168 WAT       -34.6820  -68.9160   -7.8330 O         1 <0>         0.0000
  25169 WAT       -34.6820  -68.9160   -7.5830 O         1 <0>         0.0000
  25170 WAT       -34.6820  -68.9160   -7.3330 O         1 <0>         0.0000
  25171 WAT       -34.6820  -68.9160   -7.0830 O         1 <0>         0.0000
  25172 WAT       -34.6820  -68.9160   -6.8330 O         1 <0>         0.0000
  25173 WAT       -34.6820  -68.9160   -6.5830 O         1 <0>         0.0000
  25174 WAT       -34.6820  -68.9160   -6.3330 O         1 <0>         0.0000
  25175 WAT       -34.6820  -68.9160   -6.0830 O         1 <0>         0.0000
  25176 WAT       -34.6820  -68.9160   -5.8330 O         1 <0>         0.0000
  25177 WAT       -34.6820  -68.9160   -5.5830 O         1 <0>         0.0000
  25178 WAT       -34.6820  -68.9160   -5.3330 O         1 <0>         0.0000
  25179 WAT       -34.6820  -68.9160   -5.0830 O         1 <0>         0.0000
  25180 WAT       -34.6820  -68.9160   -4.8330 O         1 <0>         0.0000
  25181 WAT       -34.6820  -68.9160   -4.5830 O         1 <0>         0.0000
  25182 WAT       -34.6820  -68.9160   -4.3330 O         1 <0>         0.0000
  25183 WAT       -34.6820  -68.9160   -4.0830 O         1 <0>         0.0000
  25184 WAT       -34.6820  -68.9160   -3.8330 O         1 <0>         0.0000
  25185 WAT       -34.6820  -68.9160   -3.5830 O         1 <0>         0.0000
  25186 WAT       -34.6820  -68.9160   -3.3330 O         1 <0>         0.0000
  25187 WAT       -34.6820  -68.9160   -3.0830 O         1 <0>         0.0000
  25188 WAT       -34.6820  -68.9160   -2.8330 O         1 <0>         0.0000
  25189 WAT       -34.6820  -68.9160   -2.5830 O         1 <0>         0.0000
  25190 WAT       -34.6820  -68.9160   -2.3330 O         1 <0>         0.0000
  25191 WAT       -34.6820  -68.9160   -2.0830 O         1 <0>         0.0000
  25192 WAT       -34.6820  -68.9160   -1.8330 O         1 <0>         0.0000
  25193 WAT       -34.6820  -68.9160   -1.5830 O         1 <0>         0.0000
  25194 WAT       -34.6820  -68.9160   -1.3330 O         1 <0>         0.0000
  25195 WAT       -34.6820  -68.9160   -1.0830 O         1 <0>         0.0000
  25196 WAT       -34.6820  -68.9160   -0.8330 O         1 <0>         0.0000
  25197 WAT       -34.6820  -68.9160   -0.5830 O         1 <0>         0.0000
  25198 WAT       -34.6820  -68.9160   -0.3330 O         1 <0>         0.0000
  25199 WAT       -34.6820  -68.9160   -0.0830 O         1 <0>         0.0000
  25200 WAT       -34.4320  -77.4160   -9.8330 O         1 <0>         0.0000
  25201 WAT       -34.4320  -77.4160   -9.5830 O         1 <0>         0.0000
  25202 WAT       -34.4320  -77.4160   -9.3330 O         1 <0>         0.0000
  25203 WAT       -34.4320  -77.4160   -9.0830 O         1 <0>         0.0000
  25204 WAT       -34.4320  -77.4160   -8.8330 O         1 <0>         0.0000
  25205 WAT       -34.4320  -77.4160   -8.5830 O         1 <0>         0.0000
  25206 WAT       -34.4320  -77.4160   -8.3330 O         1 <0>         0.0000
  25207 WAT       -34.4320  -77.4160   -8.0830 O         1 <0>         0.0000
  25208 WAT       -34.4320  -77.4160   -7.8330 O         1 <0>         0.0000
  25209 WAT       -34.4320  -77.4160   -7.5830 O         1 <0>         0.0000
  25210 WAT       -34.4320  -77.4160   -7.3330 O         1 <0>         0.0000
  25211 WAT       -34.4320  -77.4160   -7.0830 O         1 <0>         0.0000
  25212 WAT       -34.4320  -77.4160   -6.8330 O         1 <0>         0.0000
  25213 WAT       -34.4320  -77.4160   -6.5830 O         1 <0>         0.0000
  25214 WAT       -34.4320  -77.4160   -6.3330 O         1 <0>         0.0000
  25215 WAT       -34.4320  -77.4160   -6.0830 O         1 <0>         0.0000
  25216 WAT       -34.4320  -77.4160   -5.8330 O         1 <0>         0.0000
  25217 WAT       -34.4320  -77.4160   -5.5830 O         1 <0>         0.0000
  25218 WAT       -34.4320  -77.4160   -5.3330 O         1 <0>         0.0000
  25219 WAT       -34.4320  -77.4160   -5.0830 O         1 <0>         0.0000
  25220 WAT       -34.4320  -77.4160   -4.8330 O         1 <0>         0.0000
  25221 WAT       -34.4320  -77.4160   -4.5830 O         1 <0>         0.0000
  25222 WAT       -34.4320  -77.4160   -4.3330 O         1 <0>         0.0000
  25223 WAT       -34.4320  -77.4160   -4.0830 O         1 <0>         0.0000
  25224 WAT       -34.4320  -77.4160   -3.8330 O         1 <0>         0.0000
  25225 WAT       -34.4320  -77.4160   -3.5830 O         1 <0>         0.0000
  25226 WAT       -34.4320  -77.4160   -3.3330 O         1 <0>         0.0000
  25227 WAT       -34.4320  -77.4160   -3.0830 O         1 <0>         0.0000
  25228 WAT       -34.4320  -77.4160   -2.8330 O         1 <0>         0.0000
  25229 WAT       -34.4320  -77.4160   -2.5830 O         1 <0>         0.0000
  25230 WAT       -34.4320  -77.4160   -2.3330 O         1 <0>         0.0000
  25231 WAT       -34.4320  -77.4160   -2.0830 O         1 <0>         0.0000
  25232 WAT       -34.4320  -77.4160   -1.8330 O         1 <0>         0.0000
  25233 WAT       -34.4320  -77.4160   -1.5830 O         1 <0>         0.0000
  25234 WAT       -34.4320  -77.4160   -1.3330 O         1 <0>         0.0000
  25235 WAT       -34.4320  -77.4160   -1.0830 O         1 <0>         0.0000
  25236 WAT       -34.4320  -77.4160   -0.8330 O         1 <0>         0.0000
  25237 WAT       -34.4320  -77.4160   -0.5830 O         1 <0>         0.0000
  25238 WAT       -34.4320  -77.4160   -0.3330 O         1 <0>         0.0000
  25239 WAT       -34.4320  -77.4160   -0.0830 O         1 <0>         0.0000
  25240 WAT       -34.4320  -77.1660   -9.8330 O         1 <0>         0.0000
  25241 WAT       -34.4320  -77.1660   -9.5830 O         1 <0>         0.0000
  25242 WAT       -34.4320  -77.1660   -9.3330 O         1 <0>         0.0000
  25243 WAT       -34.4320  -77.1660   -9.0830 O         1 <0>         0.0000
  25244 WAT       -34.4320  -77.1660   -8.8330 O         1 <0>         0.0000
  25245 WAT       -34.4320  -77.1660   -8.5830 O         1 <0>         0.0000
  25246 WAT       -34.4320  -77.1660   -8.3330 O         1 <0>         0.0000
  25247 WAT       -34.4320  -77.1660   -8.0830 O         1 <0>         0.0000
  25248 WAT       -34.4320  -77.1660   -7.8330 O         1 <0>         0.0000
  25249 WAT       -34.4320  -77.1660   -7.5830 O         1 <0>         0.0000
  25250 WAT       -34.4320  -77.1660   -7.3330 O         1 <0>         0.0000
  25251 WAT       -34.4320  -77.1660   -7.0830 O         1 <0>         0.0000
  25252 WAT       -34.4320  -77.1660   -6.8330 O         1 <0>         0.0000
  25253 WAT       -34.4320  -77.1660   -6.5830 O         1 <0>         0.0000
  25254 WAT       -34.4320  -77.1660   -6.3330 O         1 <0>         0.0000
  25255 WAT       -34.4320  -77.1660   -6.0830 O         1 <0>         0.0000
  25256 WAT       -34.4320  -77.1660   -5.8330 O         1 <0>         0.0000
  25257 WAT       -34.4320  -77.1660   -5.5830 O         1 <0>         0.0000
  25258 WAT       -34.4320  -77.1660   -5.3330 O         1 <0>         0.0000
  25259 WAT       -34.4320  -77.1660   -5.0830 O         1 <0>         0.0000
  25260 WAT       -34.4320  -77.1660   -4.8330 O         1 <0>         0.0000
  25261 WAT       -34.4320  -77.1660   -4.5830 O         1 <0>         0.0000
  25262 WAT       -34.4320  -77.1660   -4.3330 O         1 <0>         0.0000
  25263 WAT       -34.4320  -77.1660   -4.0830 O         1 <0>         0.0000
  25264 WAT       -34.4320  -77.1660   -3.8330 O         1 <0>         0.0000
  25265 WAT       -34.4320  -77.1660   -3.5830 O         1 <0>         0.0000
  25266 WAT       -34.4320  -77.1660   -3.3330 O         1 <0>         0.0000
  25267 WAT       -34.4320  -77.1660   -3.0830 O         1 <0>         0.0000
  25268 WAT       -34.4320  -77.1660   -2.8330 O         1 <0>         0.0000
  25269 WAT       -34.4320  -77.1660   -2.5830 O         1 <0>         0.0000
  25270 WAT       -34.4320  -77.1660   -2.3330 O         1 <0>         0.0000
  25271 WAT       -34.4320  -77.1660   -2.0830 O         1 <0>         0.0000
  25272 WAT       -34.4320  -77.1660   -1.8330 O         1 <0>         0.0000
  25273 WAT       -34.4320  -77.1660   -1.5830 O         1 <0>         0.0000
  25274 WAT       -34.4320  -77.1660   -1.3330 O         1 <0>         0.0000
  25275 WAT       -34.4320  -77.1660   -1.0830 O         1 <0>         0.0000
  25276 WAT       -34.4320  -77.1660   -0.8330 O         1 <0>         0.0000
  25277 WAT       -34.4320  -77.1660   -0.5830 O         1 <0>         0.0000
  25278 WAT       -34.4320  -77.1660   -0.3330 O         1 <0>         0.0000
  25279 WAT       -34.4320  -77.1660   -0.0830 O         1 <0>         0.0000
  25280 WAT       -34.4320  -76.9160   -9.8330 O         1 <0>         0.0000
  25281 WAT       -34.4320  -76.9160   -9.5830 O         1 <0>         0.0000
  25282 WAT       -34.4320  -76.9160   -9.3330 O         1 <0>         0.0000
  25283 WAT       -34.4320  -76.9160   -9.0830 O         1 <0>         0.0000
  25284 WAT       -34.4320  -76.9160   -8.8330 O         1 <0>         0.0000
  25285 WAT       -34.4320  -76.9160   -8.5830 O         1 <0>         0.0000
  25286 WAT       -34.4320  -76.9160   -8.3330 O         1 <0>         0.0000
  25287 WAT       -34.4320  -76.9160   -8.0830 O         1 <0>         0.0000
  25288 WAT       -34.4320  -76.9160   -7.8330 O         1 <0>         0.0000
  25289 WAT       -34.4320  -76.9160   -7.5830 O         1 <0>         0.0000
  25290 WAT       -34.4320  -76.9160   -7.3330 O         1 <0>         0.0000
  25291 WAT       -34.4320  -76.9160   -7.0830 O         1 <0>         0.0000
  25292 WAT       -34.4320  -76.9160   -6.8330 O         1 <0>         0.0000
  25293 WAT       -34.4320  -76.9160   -6.5830 O         1 <0>         0.0000
  25294 WAT       -34.4320  -76.9160   -6.3330 O         1 <0>         0.0000
  25295 WAT       -34.4320  -76.9160   -6.0830 O         1 <0>         0.0000
  25296 WAT       -34.4320  -76.9160   -5.8330 O         1 <0>         0.0000
  25297 WAT       -34.4320  -76.9160   -5.5830 O         1 <0>         0.0000
  25298 WAT       -34.4320  -76.9160   -5.3330 O         1 <0>         0.0000
  25299 WAT       -34.4320  -76.9160   -5.0830 O         1 <0>         0.0000
  25300 WAT       -34.4320  -76.9160   -4.8330 O         1 <0>         0.0000
  25301 WAT       -34.4320  -76.9160   -4.5830 O         1 <0>         0.0000
  25302 WAT       -34.4320  -76.9160   -4.3330 O         1 <0>         0.0000
  25303 WAT       -34.4320  -76.9160   -4.0830 O         1 <0>         0.0000
  25304 WAT       -34.4320  -76.9160   -3.8330 O         1 <0>         0.0000
  25305 WAT       -34.4320  -76.9160   -3.5830 O         1 <0>         0.0000
  25306 WAT       -34.4320  -76.9160   -3.3330 O         1 <0>         0.0000
  25307 WAT       -34.4320  -76.9160   -3.0830 O         1 <0>         0.0000
  25308 WAT       -34.4320  -76.9160   -2.8330 O         1 <0>         0.0000
  25309 WAT       -34.4320  -76.9160   -2.5830 O         1 <0>         0.0000
  25310 WAT       -34.4320  -76.9160   -2.3330 O         1 <0>         0.0000
  25311 WAT       -34.4320  -76.9160   -2.0830 O         1 <0>         0.0000
  25312 WAT       -34.4320  -76.9160   -1.8330 O         1 <0>         0.0000
  25313 WAT       -34.4320  -76.9160   -1.5830 O         1 <0>         0.0000
  25314 WAT       -34.4320  -76.9160   -1.3330 O         1 <0>         0.0000
  25315 WAT       -34.4320  -76.9160   -1.0830 O         1 <0>         0.0000
  25316 WAT       -34.4320  -76.9160   -0.8330 O         1 <0>         0.0000
  25317 WAT       -34.4320  -76.9160   -0.5830 O         1 <0>         0.0000
  25318 WAT       -34.4320  -76.9160   -0.3330 O         1 <0>         0.0000
  25319 WAT       -34.4320  -76.9160   -0.0830 O         1 <0>         0.0000
  25320 WAT       -34.4320  -76.6660   -9.8330 O         1 <0>         0.0000
  25321 WAT       -34.4320  -76.6660   -9.5830 O         1 <0>         0.0000
  25322 WAT       -34.4320  -76.6660   -9.3330 O         1 <0>         0.0000
  25323 WAT       -34.4320  -76.6660   -9.0830 O         1 <0>         0.0000
  25324 WAT       -34.4320  -76.6660   -8.8330 O         1 <0>         0.0000
  25325 WAT       -34.4320  -76.6660   -8.5830 O         1 <0>         0.0000
  25326 WAT       -34.4320  -76.6660   -8.3330 O         1 <0>         0.0000
  25327 WAT       -34.4320  -76.6660   -8.0830 O         1 <0>         0.0000
  25328 WAT       -34.4320  -76.6660   -7.8330 O         1 <0>         0.0000
  25329 WAT       -34.4320  -76.6660   -7.5830 O         1 <0>         0.0000
  25330 WAT       -34.4320  -76.6660   -7.3330 O         1 <0>         0.0000
  25331 WAT       -34.4320  -76.6660   -7.0830 O         1 <0>         0.0000
  25332 WAT       -34.4320  -76.6660   -6.8330 O         1 <0>         0.0000
  25333 WAT       -34.4320  -76.6660   -6.5830 O         1 <0>         0.0000
  25334 WAT       -34.4320  -76.6660   -6.3330 O         1 <0>         0.0000
  25335 WAT       -34.4320  -76.6660   -6.0830 O         1 <0>         0.0000
  25336 WAT       -34.4320  -76.6660   -5.8330 O         1 <0>         0.0000
  25337 WAT       -34.4320  -76.6660   -5.5830 O         1 <0>         0.0000
  25338 WAT       -34.4320  -76.6660   -5.3330 O         1 <0>         0.0000
  25339 WAT       -34.4320  -76.6660   -5.0830 O         1 <0>         0.0000
  25340 WAT       -34.4320  -76.6660   -4.8330 O         1 <0>         0.0000
  25341 WAT       -34.4320  -76.6660   -4.5830 O         1 <0>         0.0000
  25342 WAT       -34.4320  -76.6660   -4.3330 O         1 <0>         0.0000
  25343 WAT       -34.4320  -76.6660   -4.0830 O         1 <0>         0.0000
  25344 WAT       -34.4320  -76.6660   -3.8330 O         1 <0>         0.0000
  25345 WAT       -34.4320  -76.6660   -3.5830 O         1 <0>         0.0000
  25346 WAT       -34.4320  -76.6660   -3.3330 O         1 <0>         0.0001
  25347 WAT       -34.4320  -76.6660   -3.0830 O         1 <0>         0.0001
  25348 WAT       -34.4320  -76.6660   -2.8330 O         1 <0>         0.0000
  25349 WAT       -34.4320  -76.6660   -2.5830 O         1 <0>         0.0000
  25350 WAT       -34.4320  -76.6660   -2.3330 O         1 <0>         0.0000
  25351 WAT       -34.4320  -76.6660   -2.0830 O         1 <0>         0.0000
  25352 WAT       -34.4320  -76.6660   -1.8330 O         1 <0>         0.0000
  25353 WAT       -34.4320  -76.6660   -1.5830 O         1 <0>         0.0000
  25354 WAT       -34.4320  -76.6660   -1.3330 O         1 <0>         0.0000
  25355 WAT       -34.4320  -76.6660   -1.0830 O         1 <0>         0.0000
  25356 WAT       -34.4320  -76.6660   -0.8330 O         1 <0>         0.0000
  25357 WAT       -34.4320  -76.6660   -0.5830 O         1 <0>         0.0000
  25358 WAT       -34.4320  -76.6660   -0.3330 O         1 <0>         0.0000
  25359 WAT       -34.4320  -76.6660   -0.0830 O         1 <0>         0.0000
  25360 WAT       -34.4320  -76.4160   -9.8330 O         1 <0>         0.0000
  25361 WAT       -34.4320  -76.4160   -9.5830 O         1 <0>         0.0000
  25362 WAT       -34.4320  -76.4160   -9.3330 O         1 <0>         0.0000
  25363 WAT       -34.4320  -76.4160   -9.0830 O         1 <0>         0.0000
  25364 WAT       -34.4320  -76.4160   -8.8330 O         1 <0>         0.0000
  25365 WAT       -34.4320  -76.4160   -8.5830 O         1 <0>         0.0000
  25366 WAT       -34.4320  -76.4160   -8.3330 O         1 <0>         0.0000
  25367 WAT       -34.4320  -76.4160   -8.0830 O         1 <0>         0.0000
  25368 WAT       -34.4320  -76.4160   -7.8330 O         1 <0>         0.0000
  25369 WAT       -34.4320  -76.4160   -7.5830 O         1 <0>         0.0000
  25370 WAT       -34.4320  -76.4160   -7.3330 O         1 <0>         0.0000
  25371 WAT       -34.4320  -76.4160   -7.0830 O         1 <0>         0.0000
  25372 WAT       -34.4320  -76.4160   -6.8330 O         1 <0>         0.0000
  25373 WAT       -34.4320  -76.4160   -6.5830 O         1 <0>         0.0000
  25374 WAT       -34.4320  -76.4160   -6.3330 O         1 <0>         0.0000
  25375 WAT       -34.4320  -76.4160   -6.0830 O         1 <0>         0.0000
  25376 WAT       -34.4320  -76.4160   -5.8330 O         1 <0>         0.0000
  25377 WAT       -34.4320  -76.4160   -5.5830 O         1 <0>         0.0000
  25378 WAT       -34.4320  -76.4160   -5.3330 O         1 <0>         0.0000
  25379 WAT       -34.4320  -76.4160   -5.0830 O         1 <0>         0.0000
  25380 WAT       -34.4320  -76.4160   -4.8330 O         1 <0>         0.0000
  25381 WAT       -34.4320  -76.4160   -4.5830 O         1 <0>         0.0000
  25382 WAT       -34.4320  -76.4160   -4.3330 O         1 <0>         0.0000
  25383 WAT       -34.4320  -76.4160   -4.0830 O         1 <0>         0.0000
  25384 WAT       -34.4320  -76.4160   -3.8330 O         1 <0>         0.0001
  25385 WAT       -34.4320  -76.4160   -3.5830 O         1 <0>         0.0004
  25386 WAT       -34.4320  -76.4160   -3.3330 O         1 <0>         0.0007
  25387 WAT       -34.4320  -76.4160   -3.0830 O         1 <0>         0.0008
  25388 WAT       -34.4320  -76.4160   -2.8330 O         1 <0>         0.0005
  25389 WAT       -34.4320  -76.4160   -2.5830 O         1 <0>         0.0002
  25390 WAT       -34.4320  -76.4160   -2.3330 O         1 <0>         0.0000
  25391 WAT       -34.4320  -76.4160   -2.0830 O         1 <0>         0.0000
  25392 WAT       -34.4320  -76.4160   -1.8330 O         1 <0>         0.0000
  25393 WAT       -34.4320  -76.4160   -1.5830 O         1 <0>         0.0000
  25394 WAT       -34.4320  -76.4160   -1.3330 O         1 <0>         0.0000
  25395 WAT       -34.4320  -76.4160   -1.0830 O         1 <0>         0.0000
  25396 WAT       -34.4320  -76.4160   -0.8330 O         1 <0>         0.0000
  25397 WAT       -34.4320  -76.4160   -0.5830 O         1 <0>         0.0000
  25398 WAT       -34.4320  -76.4160   -0.3330 O         1 <0>         0.0000
  25399 WAT       -34.4320  -76.4160   -0.0830 O         1 <0>         0.0000
  25400 WAT       -34.4320  -76.1660   -9.8330 O         1 <0>         0.0000
  25401 WAT       -34.4320  -76.1660   -9.5830 O         1 <0>         0.0000
  25402 WAT       -34.4320  -76.1660   -9.3330 O         1 <0>         0.0000
  25403 WAT       -34.4320  -76.1660   -9.0830 O         1 <0>         0.0000
  25404 WAT       -34.4320  -76.1660   -8.8330 O         1 <0>         0.0000
  25405 WAT       -34.4320  -76.1660   -8.5830 O         1 <0>         0.0000
  25406 WAT       -34.4320  -76.1660   -8.3330 O         1 <0>         0.0000
  25407 WAT       -34.4320  -76.1660   -8.0830 O         1 <0>         0.0000
  25408 WAT       -34.4320  -76.1660   -7.8330 O         1 <0>         0.0000
  25409 WAT       -34.4320  -76.1660   -7.5830 O         1 <0>         0.0000
  25410 WAT       -34.4320  -76.1660   -7.3330 O         1 <0>         0.0000
  25411 WAT       -34.4320  -76.1660   -7.0830 O         1 <0>         0.0000
  25412 WAT       -34.4320  -76.1660   -6.8330 O         1 <0>         0.0000
  25413 WAT       -34.4320  -76.1660   -6.5830 O         1 <0>         0.0000
  25414 WAT       -34.4320  -76.1660   -6.3330 O         1 <0>         0.0000
  25415 WAT       -34.4320  -76.1660   -6.0830 O         1 <0>         0.0000
  25416 WAT       -34.4320  -76.1660   -5.8330 O         1 <0>         0.0000
  25417 WAT       -34.4320  -76.1660   -5.5830 O         1 <0>         0.0000
  25418 WAT       -34.4320  -76.1660   -5.3330 O         1 <0>         0.0000
  25419 WAT       -34.4320  -76.1660   -5.0830 O         1 <0>         0.0000
  25420 WAT       -34.4320  -76.1660   -4.8330 O         1 <0>         0.0000
  25421 WAT       -34.4320  -76.1660   -4.5830 O         1 <0>         0.0000
  25422 WAT       -34.4320  -76.1660   -4.3330 O         1 <0>         0.0000
  25423 WAT       -34.4320  -76.1660   -4.0830 O         1 <0>         0.0002
  25424 WAT       -34.4320  -76.1660   -3.8330 O         1 <0>         0.0011
  25425 WAT       -34.4320  -76.1660   -3.5830 O         1 <0>         0.0028
  25426 WAT       -34.4320  -76.1660   -3.3330 O         1 <0>         0.0044
  25427 WAT       -34.4320  -76.1660   -3.0830 O         1 <0>         0.0045
  25428 WAT       -34.4320  -76.1660   -2.8330 O         1 <0>         0.0031
  25429 WAT       -34.4320  -76.1660   -2.5830 O         1 <0>         0.0014
  25430 WAT       -34.4320  -76.1660   -2.3330 O         1 <0>         0.0003
  25431 WAT       -34.4320  -76.1660   -2.0830 O         1 <0>         0.0000
  25432 WAT       -34.4320  -76.1660   -1.8330 O         1 <0>         0.0000
  25433 WAT       -34.4320  -76.1660   -1.5830 O         1 <0>         0.0000
  25434 WAT       -34.4320  -76.1660   -1.3330 O         1 <0>         0.0000
  25435 WAT       -34.4320  -76.1660   -1.0830 O         1 <0>         0.0000
  25436 WAT       -34.4320  -76.1660   -0.8330 O         1 <0>         0.0000
  25437 WAT       -34.4320  -76.1660   -0.5830 O         1 <0>         0.0000
  25438 WAT       -34.4320  -76.1660   -0.3330 O         1 <0>         0.0000
  25439 WAT       -34.4320  -76.1660   -0.0830 O         1 <0>         0.0000
  25440 WAT       -34.4320  -75.9160   -9.8330 O         1 <0>         0.0000
  25441 WAT       -34.4320  -75.9160   -9.5830 O         1 <0>         0.0000
  25442 WAT       -34.4320  -75.9160   -9.3330 O         1 <0>         0.0000
  25443 WAT       -34.4320  -75.9160   -9.0830 O         1 <0>         0.0000
  25444 WAT       -34.4320  -75.9160   -8.8330 O         1 <0>         0.0000
  25445 WAT       -34.4320  -75.9160   -8.5830 O         1 <0>         0.0000
  25446 WAT       -34.4320  -75.9160   -8.3330 O         1 <0>         0.0000
  25447 WAT       -34.4320  -75.9160   -8.0830 O         1 <0>         0.0000
  25448 WAT       -34.4320  -75.9160   -7.8330 O         1 <0>         0.0000
  25449 WAT       -34.4320  -75.9160   -7.5830 O         1 <0>         0.0000
  25450 WAT       -34.4320  -75.9160   -7.3330 O         1 <0>         0.0000
  25451 WAT       -34.4320  -75.9160   -7.0830 O         1 <0>         0.0000
  25452 WAT       -34.4320  -75.9160   -6.8330 O         1 <0>         0.0000
  25453 WAT       -34.4320  -75.9160   -6.5830 O         1 <0>         0.0000
  25454 WAT       -34.4320  -75.9160   -6.3330 O         1 <0>         0.0000
  25455 WAT       -34.4320  -75.9160   -6.0830 O         1 <0>         0.0000
  25456 WAT       -34.4320  -75.9160   -5.8330 O         1 <0>         0.0000
  25457 WAT       -34.4320  -75.9160   -5.5830 O         1 <0>         0.0000
  25458 WAT       -34.4320  -75.9160   -5.3330 O         1 <0>         0.0000
  25459 WAT       -34.4320  -75.9160   -5.0830 O         1 <0>         0.0000
  25460 WAT       -34.4320  -75.9160   -4.8330 O         1 <0>         0.0000
  25461 WAT       -34.4320  -75.9160   -4.5830 O         1 <0>         0.0000
  25462 WAT       -34.4320  -75.9160   -4.3330 O         1 <0>         0.0003
  25463 WAT       -34.4320  -75.9160   -4.0830 O         1 <0>         0.0015
  25464 WAT       -34.4320  -75.9160   -3.8330 O         1 <0>         0.0050
  25465 WAT       -34.4320  -75.9160   -3.5830 O         1 <0>         0.0111
  25466 WAT       -34.4320  -75.9160   -3.3330 O         1 <0>         0.0164
  25467 WAT       -34.4320  -75.9160   -3.0830 O         1 <0>         0.0166
  25468 WAT       -34.4320  -75.9160   -2.8330 O         1 <0>         0.0113
  25469 WAT       -34.4320  -75.9160   -2.5830 O         1 <0>         0.0051
  25470 WAT       -34.4320  -75.9160   -2.3330 O         1 <0>         0.0014
  25471 WAT       -34.4320  -75.9160   -2.0830 O         1 <0>         0.0002
  25472 WAT       -34.4320  -75.9160   -1.8330 O         1 <0>         0.0000
  25473 WAT       -34.4320  -75.9160   -1.5830 O         1 <0>         0.0000
  25474 WAT       -34.4320  -75.9160   -1.3330 O         1 <0>         0.0000
  25475 WAT       -34.4320  -75.9160   -1.0830 O         1 <0>         0.0000
  25476 WAT       -34.4320  -75.9160   -0.8330 O         1 <0>         0.0000
  25477 WAT       -34.4320  -75.9160   -0.5830 O         1 <0>         0.0000
  25478 WAT       -34.4320  -75.9160   -0.3330 O         1 <0>         0.0000
  25479 WAT       -34.4320  -75.9160   -0.0830 O         1 <0>         0.0000
  25480 WAT       -34.4320  -75.6660   -9.8330 O         1 <0>         0.0000
  25481 WAT       -34.4320  -75.6660   -9.5830 O         1 <0>         0.0000
  25482 WAT       -34.4320  -75.6660   -9.3330 O         1 <0>         0.0000
  25483 WAT       -34.4320  -75.6660   -9.0830 O         1 <0>         0.0000
  25484 WAT       -34.4320  -75.6660   -8.8330 O         1 <0>         0.0000
  25485 WAT       -34.4320  -75.6660   -8.5830 O         1 <0>         0.0000
  25486 WAT       -34.4320  -75.6660   -8.3330 O         1 <0>         0.0000
  25487 WAT       -34.4320  -75.6660   -8.0830 O         1 <0>         0.0000
  25488 WAT       -34.4320  -75.6660   -7.8330 O         1 <0>         0.0000
  25489 WAT       -34.4320  -75.6660   -7.5830 O         1 <0>         0.0000
  25490 WAT       -34.4320  -75.6660   -7.3330 O         1 <0>         0.0000
  25491 WAT       -34.4320  -75.6660   -7.0830 O         1 <0>         0.0000
  25492 WAT       -34.4320  -75.6660   -6.8330 O         1 <0>         0.0000
  25493 WAT       -34.4320  -75.6660   -6.5830 O         1 <0>         0.0000
  25494 WAT       -34.4320  -75.6660   -6.3330 O         1 <0>         0.0000
  25495 WAT       -34.4320  -75.6660   -6.0830 O         1 <0>         0.0000
  25496 WAT       -34.4320  -75.6660   -5.8330 O         1 <0>         0.0000
  25497 WAT       -34.4320  -75.6660   -5.5830 O         1 <0>         0.0000
  25498 WAT       -34.4320  -75.6660   -5.3330 O         1 <0>         0.0000
  25499 WAT       -34.4320  -75.6660   -5.0830 O         1 <0>         0.0000
  25500 WAT       -34.4320  -75.6660   -4.8330 O         1 <0>         0.0000
  25501 WAT       -34.4320  -75.6660   -4.5830 O         1 <0>         0.0002
  25502 WAT       -34.4320  -75.6660   -4.3330 O         1 <0>         0.0012
  25503 WAT       -34.4320  -75.6660   -4.0830 O         1 <0>         0.0051
  25504 WAT       -34.4320  -75.6660   -3.8330 O         1 <0>         0.0144
  25505 WAT       -34.4320  -75.6660   -3.5830 O         1 <0>         0.0288
  25506 WAT       -34.4320  -75.6660   -3.3330 O         1 <0>         0.0407
  25507 WAT       -34.4320  -75.6660   -3.0830 O         1 <0>         0.0404
  25508 WAT       -34.4320  -75.6660   -2.8330 O         1 <0>         0.0275
  25509 WAT       -34.4320  -75.6660   -2.5830 O         1 <0>         0.0127
  25510 WAT       -34.4320  -75.6660   -2.3330 O         1 <0>         0.0038
  25511 WAT       -34.4320  -75.6660   -2.0830 O         1 <0>         0.0006
  25512 WAT       -34.4320  -75.6660   -1.8330 O         1 <0>         0.0000
  25513 WAT       -34.4320  -75.6660   -1.5830 O         1 <0>         0.0000
  25514 WAT       -34.4320  -75.6660   -1.3330 O         1 <0>         0.0000
  25515 WAT       -34.4320  -75.6660   -1.0830 O         1 <0>         0.0000
  25516 WAT       -34.4320  -75.6660   -0.8330 O         1 <0>         0.0000
  25517 WAT       -34.4320  -75.6660   -0.5830 O         1 <0>         0.0000
  25518 WAT       -34.4320  -75.6660   -0.3330 O         1 <0>         0.0000
  25519 WAT       -34.4320  -75.6660   -0.0830 O         1 <0>         0.0000
  25520 WAT       -34.4320  -75.4160   -9.8330 O         1 <0>         0.0000
  25521 WAT       -34.4320  -75.4160   -9.5830 O         1 <0>         0.0000
  25522 WAT       -34.4320  -75.4160   -9.3330 O         1 <0>         0.0000
  25523 WAT       -34.4320  -75.4160   -9.0830 O         1 <0>         0.0000
  25524 WAT       -34.4320  -75.4160   -8.8330 O         1 <0>         0.0000
  25525 WAT       -34.4320  -75.4160   -8.5830 O         1 <0>         0.0000
  25526 WAT       -34.4320  -75.4160   -8.3330 O         1 <0>         0.0000
  25527 WAT       -34.4320  -75.4160   -8.0830 O         1 <0>         0.0000
  25528 WAT       -34.4320  -75.4160   -7.8330 O         1 <0>         0.0000
  25529 WAT       -34.4320  -75.4160   -7.5830 O         1 <0>         0.0000
  25530 WAT       -34.4320  -75.4160   -7.3330 O         1 <0>         0.0000
  25531 WAT       -34.4320  -75.4160   -7.0830 O         1 <0>         0.0000
  25532 WAT       -34.4320  -75.4160   -6.8330 O         1 <0>         0.0000
  25533 WAT       -34.4320  -75.4160   -6.5830 O         1 <0>         0.0000
  25534 WAT       -34.4320  -75.4160   -6.3330 O         1 <0>         0.0000
  25535 WAT       -34.4320  -75.4160   -6.0830 O         1 <0>         0.0000
  25536 WAT       -34.4320  -75.4160   -5.8330 O         1 <0>         0.0000
  25537 WAT       -34.4320  -75.4160   -5.5830 O         1 <0>         0.0000
  25538 WAT       -34.4320  -75.4160   -5.3330 O         1 <0>         0.0000
  25539 WAT       -34.4320  -75.4160   -5.0830 O         1 <0>         0.0000
  25540 WAT       -34.4320  -75.4160   -4.8330 O         1 <0>         0.0001
  25541 WAT       -34.4320  -75.4160   -4.5830 O         1 <0>         0.0006
  25542 WAT       -34.4320  -75.4160   -4.3330 O         1 <0>         0.0030
  25543 WAT       -34.4320  -75.4160   -4.0830 O         1 <0>         0.0109
  25544 WAT       -34.4320  -75.4160   -3.8330 O         1 <0>         0.0279
  25545 WAT       -34.4320  -75.4160   -3.5830 O         1 <0>         0.0520
  25546 WAT       -34.4320  -75.4160   -3.3330 O         1 <0>         0.0705
  25547 WAT       -34.4320  -75.4160   -3.0830 O         1 <0>         0.0683
  25548 WAT       -34.4320  -75.4160   -2.8330 O         1 <0>         0.0464
  25549 WAT       -34.4320  -75.4160   -2.5830 O         1 <0>         0.0216
  25550 WAT       -34.4320  -75.4160   -2.3330 O         1 <0>         0.0067
  25551 WAT       -34.4320  -75.4160   -2.0830 O         1 <0>         0.0012
  25552 WAT       -34.4320  -75.4160   -1.8330 O         1 <0>         0.0001
  25553 WAT       -34.4320  -75.4160   -1.5830 O         1 <0>         0.0000
  25554 WAT       -34.4320  -75.4160   -1.3330 O         1 <0>         0.0000
  25555 WAT       -34.4320  -75.4160   -1.0830 O         1 <0>         0.0000
  25556 WAT       -34.4320  -75.4160   -0.8330 O         1 <0>         0.0000
  25557 WAT       -34.4320  -75.4160   -0.5830 O         1 <0>         0.0000
  25558 WAT       -34.4320  -75.4160   -0.3330 O         1 <0>         0.0000
  25559 WAT       -34.4320  -75.4160   -0.0830 O         1 <0>         0.0000
  25560 WAT       -34.4320  -75.1660   -9.8330 O         1 <0>         0.0000
  25561 WAT       -34.4320  -75.1660   -9.5830 O         1 <0>         0.0000
  25562 WAT       -34.4320  -75.1660   -9.3330 O         1 <0>         0.0000
  25563 WAT       -34.4320  -75.1660   -9.0830 O         1 <0>         0.0000
  25564 WAT       -34.4320  -75.1660   -8.8330 O         1 <0>         0.0000
  25565 WAT       -34.4320  -75.1660   -8.5830 O         1 <0>         0.0000
  25566 WAT       -34.4320  -75.1660   -8.3330 O         1 <0>         0.0000
  25567 WAT       -34.4320  -75.1660   -8.0830 O         1 <0>         0.0000
  25568 WAT       -34.4320  -75.1660   -7.8330 O         1 <0>         0.0000
  25569 WAT       -34.4320  -75.1660   -7.5830 O         1 <0>         0.0000
  25570 WAT       -34.4320  -75.1660   -7.3330 O         1 <0>         0.0000
  25571 WAT       -34.4320  -75.1660   -7.0830 O         1 <0>         0.0000
  25572 WAT       -34.4320  -75.1660   -6.8330 O         1 <0>         0.0000
  25573 WAT       -34.4320  -75.1660   -6.5830 O         1 <0>         0.0000
  25574 WAT       -34.4320  -75.1660   -6.3330 O         1 <0>         0.0001
  25575 WAT       -34.4320  -75.1660   -6.0830 O         1 <0>         0.0002
  25576 WAT       -34.4320  -75.1660   -5.8330 O         1 <0>         0.0002
  25577 WAT       -34.4320  -75.1660   -5.5830 O         1 <0>         0.0001
  25578 WAT       -34.4320  -75.1660   -5.3330 O         1 <0>         0.0000
  25579 WAT       -34.4320  -75.1660   -5.0830 O         1 <0>         0.0001
  25580 WAT       -34.4320  -75.1660   -4.8330 O         1 <0>         0.0003
  25581 WAT       -34.4320  -75.1660   -4.5830 O         1 <0>         0.0012
  25582 WAT       -34.4320  -75.1660   -4.3330 O         1 <0>         0.0050
  25583 WAT       -34.4320  -75.1660   -4.0830 O         1 <0>         0.0159
  25584 WAT       -34.4320  -75.1660   -3.8330 O         1 <0>         0.0377
  25585 WAT       -34.4320  -75.1660   -3.5830 O         1 <0>         0.0665
  25586 WAT       -34.4320  -75.1660   -3.3330 O         1 <0>         0.0868
  25587 WAT       -34.4320  -75.1660   -3.0830 O         1 <0>         0.0826
  25588 WAT       -34.4320  -75.1660   -2.8330 O         1 <0>         0.0560
  25589 WAT       -34.4320  -75.1660   -2.5830 O         1 <0>         0.0265
  25590 WAT       -34.4320  -75.1660   -2.3330 O         1 <0>         0.0085
  25591 WAT       -34.4320  -75.1660   -2.0830 O         1 <0>         0.0017
  25592 WAT       -34.4320  -75.1660   -1.8330 O         1 <0>         0.0002
  25593 WAT       -34.4320  -75.1660   -1.5830 O         1 <0>         0.0000
  25594 WAT       -34.4320  -75.1660   -1.3330 O         1 <0>         0.0000
  25595 WAT       -34.4320  -75.1660   -1.0830 O         1 <0>         0.0000
  25596 WAT       -34.4320  -75.1660   -0.8330 O         1 <0>         0.0000
  25597 WAT       -34.4320  -75.1660   -0.5830 O         1 <0>         0.0000
  25598 WAT       -34.4320  -75.1660   -0.3330 O         1 <0>         0.0000
  25599 WAT       -34.4320  -75.1660   -0.0830 O         1 <0>         0.0000
  25600 WAT       -34.4320  -74.9160   -9.8330 O         1 <0>         0.0000
  25601 WAT       -34.4320  -74.9160   -9.5830 O         1 <0>         0.0000
  25602 WAT       -34.4320  -74.9160   -9.3330 O         1 <0>         0.0000
  25603 WAT       -34.4320  -74.9160   -9.0830 O         1 <0>         0.0000
  25604 WAT       -34.4320  -74.9160   -8.8330 O         1 <0>         0.0000
  25605 WAT       -34.4320  -74.9160   -8.5830 O         1 <0>         0.0000
  25606 WAT       -34.4320  -74.9160   -8.3330 O         1 <0>         0.0000
  25607 WAT       -34.4320  -74.9160   -8.0830 O         1 <0>         0.0000
  25608 WAT       -34.4320  -74.9160   -7.8330 O         1 <0>         0.0000
  25609 WAT       -34.4320  -74.9160   -7.5830 O         1 <0>         0.0000
  25610 WAT       -34.4320  -74.9160   -7.3330 O         1 <0>         0.0000
  25611 WAT       -34.4320  -74.9160   -7.0830 O         1 <0>         0.0000
  25612 WAT       -34.4320  -74.9160   -6.8330 O         1 <0>         0.0001
  25613 WAT       -34.4320  -74.9160   -6.5830 O         1 <0>         0.0004
  25614 WAT       -34.4320  -74.9160   -6.3330 O         1 <0>         0.0008
  25615 WAT       -34.4320  -74.9160   -6.0830 O         1 <0>         0.0012
  25616 WAT       -34.4320  -74.9160   -5.8330 O         1 <0>         0.0011
  25617 WAT       -34.4320  -74.9160   -5.5830 O         1 <0>         0.0007
  25618 WAT       -34.4320  -74.9160   -5.3330 O         1 <0>         0.0004
  25619 WAT       -34.4320  -74.9160   -5.0830 O         1 <0>         0.0004
  25620 WAT       -34.4320  -74.9160   -4.8330 O         1 <0>         0.0007
  25621 WAT       -34.4320  -74.9160   -4.5830 O         1 <0>         0.0019
  25622 WAT       -34.4320  -74.9160   -4.3330 O         1 <0>         0.0059
  25623 WAT       -34.4320  -74.9160   -4.0830 O         1 <0>         0.0164
  25624 WAT       -34.4320  -74.9160   -3.8330 O         1 <0>         0.0363
  25625 WAT       -34.4320  -74.9160   -3.5830 O         1 <0>         0.0617
  25626 WAT       -34.4320  -74.9160   -3.3330 O         1 <0>         0.0786
  25627 WAT       -34.4320  -74.9160   -3.0830 O         1 <0>         0.0744
  25628 WAT       -34.4320  -74.9160   -2.8330 O         1 <0>         0.0513
  25629 WAT       -34.4320  -74.9160   -2.5830 O         1 <0>         0.0254
  25630 WAT       -34.4320  -74.9160   -2.3330 O         1 <0>         0.0088
  25631 WAT       -34.4320  -74.9160   -2.0830 O         1 <0>         0.0020
  25632 WAT       -34.4320  -74.9160   -1.8330 O         1 <0>         0.0002
  25633 WAT       -34.4320  -74.9160   -1.5830 O         1 <0>         0.0000
  25634 WAT       -34.4320  -74.9160   -1.3330 O         1 <0>         0.0000
  25635 WAT       -34.4320  -74.9160   -1.0830 O         1 <0>         0.0000
  25636 WAT       -34.4320  -74.9160   -0.8330 O         1 <0>         0.0000
  25637 WAT       -34.4320  -74.9160   -0.5830 O         1 <0>         0.0000
  25638 WAT       -34.4320  -74.9160   -0.3330 O         1 <0>         0.0000
  25639 WAT       -34.4320  -74.9160   -0.0830 O         1 <0>         0.0000
  25640 WAT       -34.4320  -74.6660   -9.8330 O         1 <0>         0.0000
  25641 WAT       -34.4320  -74.6660   -9.5830 O         1 <0>         0.0000
  25642 WAT       -34.4320  -74.6660   -9.3330 O         1 <0>         0.0000
  25643 WAT       -34.4320  -74.6660   -9.0830 O         1 <0>         0.0000
  25644 WAT       -34.4320  -74.6660   -8.8330 O         1 <0>         0.0000
  25645 WAT       -34.4320  -74.6660   -8.5830 O         1 <0>         0.0000
  25646 WAT       -34.4320  -74.6660   -8.3330 O         1 <0>         0.0000
  25647 WAT       -34.4320  -74.6660   -8.0830 O         1 <0>         0.0000
  25648 WAT       -34.4320  -74.6660   -7.8330 O         1 <0>         0.0000
  25649 WAT       -34.4320  -74.6660   -7.5830 O         1 <0>         0.0000
  25650 WAT       -34.4320  -74.6660   -7.3330 O         1 <0>         0.0000
  25651 WAT       -34.4320  -74.6660   -7.0830 O         1 <0>         0.0001
  25652 WAT       -34.4320  -74.6660   -6.8330 O         1 <0>         0.0004
  25653 WAT       -34.4320  -74.6660   -6.5830 O         1 <0>         0.0015
  25654 WAT       -34.4320  -74.6660   -6.3330 O         1 <0>         0.0031
  25655 WAT       -34.4320  -74.6660   -6.0830 O         1 <0>         0.0044
  25656 WAT       -34.4320  -74.6660   -5.8330 O         1 <0>         0.0042
  25657 WAT       -34.4320  -74.6660   -5.5830 O         1 <0>         0.0029
  25658 WAT       -34.4320  -74.6660   -5.3330 O         1 <0>         0.0018
  25659 WAT       -34.4320  -74.6660   -5.0830 O         1 <0>         0.0015
  25660 WAT       -34.4320  -74.6660   -4.8330 O         1 <0>         0.0017
  25661 WAT       -34.4320  -74.6660   -4.5830 O         1 <0>         0.0027
  25662 WAT       -34.4320  -74.6660   -4.3330 O         1 <0>         0.0054
  25663 WAT       -34.4320  -74.6660   -4.0830 O         1 <0>         0.0124
  25664 WAT       -34.4320  -74.6660   -3.8330 O         1 <0>         0.0262
  25665 WAT       -34.4320  -74.6660   -3.5830 O         1 <0>         0.0437
  25666 WAT       -34.4320  -74.6660   -3.3330 O         1 <0>         0.0558
  25667 WAT       -34.4320  -74.6660   -3.0830 O         1 <0>         0.0538
  25668 WAT       -34.4320  -74.6660   -2.8330 O         1 <0>         0.0390
  25669 WAT       -34.4320  -74.6660   -2.5830 O         1 <0>         0.0212
  25670 WAT       -34.4320  -74.6660   -2.3330 O         1 <0>         0.0086
  25671 WAT       -34.4320  -74.6660   -2.0830 O         1 <0>         0.0025
  25672 WAT       -34.4320  -74.6660   -1.8330 O         1 <0>         0.0005
  25673 WAT       -34.4320  -74.6660   -1.5830 O         1 <0>         0.0000
  25674 WAT       -34.4320  -74.6660   -1.3330 O         1 <0>         0.0000
  25675 WAT       -34.4320  -74.6660   -1.0830 O         1 <0>         0.0000
  25676 WAT       -34.4320  -74.6660   -0.8330 O         1 <0>         0.0000
  25677 WAT       -34.4320  -74.6660   -0.5830 O         1 <0>         0.0000
  25678 WAT       -34.4320  -74.6660   -0.3330 O         1 <0>         0.0000
  25679 WAT       -34.4320  -74.6660   -0.0830 O         1 <0>         0.0000
  25680 WAT       -34.4320  -74.4160   -9.8330 O         1 <0>         0.0000
  25681 WAT       -34.4320  -74.4160   -9.5830 O         1 <0>         0.0000
  25682 WAT       -34.4320  -74.4160   -9.3330 O         1 <0>         0.0000
  25683 WAT       -34.4320  -74.4160   -9.0830 O         1 <0>         0.0000
  25684 WAT       -34.4320  -74.4160   -8.8330 O         1 <0>         0.0000
  25685 WAT       -34.4320  -74.4160   -8.5830 O         1 <0>         0.0000
  25686 WAT       -34.4320  -74.4160   -8.3330 O         1 <0>         0.0000
  25687 WAT       -34.4320  -74.4160   -8.0830 O         1 <0>         0.0000
  25688 WAT       -34.4320  -74.4160   -7.8330 O         1 <0>         0.0000
  25689 WAT       -34.4320  -74.4160   -7.5830 O         1 <0>         0.0000
  25690 WAT       -34.4320  -74.4160   -7.3330 O         1 <0>         0.0000
  25691 WAT       -34.4320  -74.4160   -7.0830 O         1 <0>         0.0003
  25692 WAT       -34.4320  -74.4160   -6.8330 O         1 <0>         0.0012
  25693 WAT       -34.4320  -74.4160   -6.5830 O         1 <0>         0.0036
  25694 WAT       -34.4320  -74.4160   -6.3330 O         1 <0>         0.0072
  25695 WAT       -34.4320  -74.4160   -6.0830 O         1 <0>         0.0101
  25696 WAT       -34.4320  -74.4160   -5.8330 O         1 <0>         0.0098
  25697 WAT       -34.4320  -74.4160   -5.5830 O         1 <0>         0.0070
  25698 WAT       -34.4320  -74.4160   -5.3330 O         1 <0>         0.0047
  25699 WAT       -34.4320  -74.4160   -5.0830 O         1 <0>         0.0040
  25700 WAT       -34.4320  -74.4160   -4.8330 O         1 <0>         0.0041
  25701 WAT       -34.4320  -74.4160   -4.5830 O         1 <0>         0.0042
  25702 WAT       -34.4320  -74.4160   -4.3330 O         1 <0>         0.0049
  25703 WAT       -34.4320  -74.4160   -4.0830 O         1 <0>         0.0080
  25704 WAT       -34.4320  -74.4160   -3.8330 O         1 <0>         0.0152
  25705 WAT       -34.4320  -74.4160   -3.5830 O         1 <0>         0.0257
  25706 WAT       -34.4320  -74.4160   -3.3330 O         1 <0>         0.0339
  25707 WAT       -34.4320  -74.4160   -3.0830 O         1 <0>         0.0343
  25708 WAT       -34.4320  -74.4160   -2.8330 O         1 <0>         0.0272
  25709 WAT       -34.4320  -74.4160   -2.5830 O         1 <0>         0.0174
  25710 WAT       -34.4320  -74.4160   -2.3330 O         1 <0>         0.0092
  25711 WAT       -34.4320  -74.4160   -2.0830 O         1 <0>         0.0039
  25712 WAT       -34.4320  -74.4160   -1.8330 O         1 <0>         0.0012
  25713 WAT       -34.4320  -74.4160   -1.5830 O         1 <0>         0.0002
  25714 WAT       -34.4320  -74.4160   -1.3330 O         1 <0>         0.0000
  25715 WAT       -34.4320  -74.4160   -1.0830 O         1 <0>         0.0000
  25716 WAT       -34.4320  -74.4160   -0.8330 O         1 <0>         0.0000
  25717 WAT       -34.4320  -74.4160   -0.5830 O         1 <0>         0.0000
  25718 WAT       -34.4320  -74.4160   -0.3330 O         1 <0>         0.0000
  25719 WAT       -34.4320  -74.4160   -0.0830 O         1 <0>         0.0000
  25720 WAT       -34.4320  -74.1660   -9.8330 O         1 <0>         0.0000
  25721 WAT       -34.4320  -74.1660   -9.5830 O         1 <0>         0.0000
  25722 WAT       -34.4320  -74.1660   -9.3330 O         1 <0>         0.0000
  25723 WAT       -34.4320  -74.1660   -9.0830 O         1 <0>         0.0000
  25724 WAT       -34.4320  -74.1660   -8.8330 O         1 <0>         0.0000
  25725 WAT       -34.4320  -74.1660   -8.5830 O         1 <0>         0.0000
  25726 WAT       -34.4320  -74.1660   -8.3330 O         1 <0>         0.0000
  25727 WAT       -34.4320  -74.1660   -8.0830 O         1 <0>         0.0000
  25728 WAT       -34.4320  -74.1660   -7.8330 O         1 <0>         0.0000
  25729 WAT       -34.4320  -74.1660   -7.5830 O         1 <0>         0.0000
  25730 WAT       -34.4320  -74.1660   -7.3330 O         1 <0>         0.0001
  25731 WAT       -34.4320  -74.1660   -7.0830 O         1 <0>         0.0005
  25732 WAT       -34.4320  -74.1660   -6.8330 O         1 <0>         0.0020
  25733 WAT       -34.4320  -74.1660   -6.5830 O         1 <0>         0.0056
  25734 WAT       -34.4320  -74.1660   -6.3330 O         1 <0>         0.0111
  25735 WAT       -34.4320  -74.1660   -6.0830 O         1 <0>         0.0153
  25736 WAT       -34.4320  -74.1660   -5.8330 O         1 <0>         0.0151
  25737 WAT       -34.4320  -74.1660   -5.5830 O         1 <0>         0.0114
  25738 WAT       -34.4320  -74.1660   -5.3330 O         1 <0>         0.0087
  25739 WAT       -34.4320  -74.1660   -5.0830 O         1 <0>         0.0086
  25740 WAT       -34.4320  -74.1660   -4.8330 O         1 <0>         0.0088
  25741 WAT       -34.4320  -74.1660   -4.5830 O         1 <0>         0.0078
  25742 WAT       -34.4320  -74.1660   -4.3330 O         1 <0>         0.0060
  25743 WAT       -34.4320  -74.1660   -4.0830 O         1 <0>         0.0056
  25744 WAT       -34.4320  -74.1660   -3.8330 O         1 <0>         0.0083
  25745 WAT       -34.4320  -74.1660   -3.5830 O         1 <0>         0.0137
  25746 WAT       -34.4320  -74.1660   -3.3330 O         1 <0>         0.0188
  25747 WAT       -34.4320  -74.1660   -3.0830 O         1 <0>         0.0205
  25748 WAT       -34.4320  -74.1660   -2.8330 O         1 <0>         0.0187
  25749 WAT       -34.4320  -74.1660   -2.5830 O         1 <0>         0.0152
  25750 WAT       -34.4320  -74.1660   -2.3330 O         1 <0>         0.0109
  25751 WAT       -34.4320  -74.1660   -2.0830 O         1 <0>         0.0063
  25752 WAT       -34.4320  -74.1660   -1.8330 O         1 <0>         0.0028
  25753 WAT       -34.4320  -74.1660   -1.5830 O         1 <0>         0.0008
  25754 WAT       -34.4320  -74.1660   -1.3330 O         1 <0>         0.0001
  25755 WAT       -34.4320  -74.1660   -1.0830 O         1 <0>         0.0000
  25756 WAT       -34.4320  -74.1660   -0.8330 O         1 <0>         0.0000
  25757 WAT       -34.4320  -74.1660   -0.5830 O         1 <0>         0.0000
  25758 WAT       -34.4320  -74.1660   -0.3330 O         1 <0>         0.0000
  25759 WAT       -34.4320  -74.1660   -0.0830 O         1 <0>         0.0000
  25760 WAT       -34.4320  -73.9160   -9.8330 O         1 <0>         0.0000
  25761 WAT       -34.4320  -73.9160   -9.5830 O         1 <0>         0.0000
  25762 WAT       -34.4320  -73.9160   -9.3330 O         1 <0>         0.0000
  25763 WAT       -34.4320  -73.9160   -9.0830 O         1 <0>         0.0000
  25764 WAT       -34.4320  -73.9160   -8.8330 O         1 <0>         0.0000
  25765 WAT       -34.4320  -73.9160   -8.5830 O         1 <0>         0.0000
  25766 WAT       -34.4320  -73.9160   -8.3330 O         1 <0>         0.0000
  25767 WAT       -34.4320  -73.9160   -8.0830 O         1 <0>         0.0000
  25768 WAT       -34.4320  -73.9160   -7.8330 O         1 <0>         0.0000
  25769 WAT       -34.4320  -73.9160   -7.5830 O         1 <0>         0.0000
  25770 WAT       -34.4320  -73.9160   -7.3330 O         1 <0>         0.0001
  25771 WAT       -34.4320  -73.9160   -7.0830 O         1 <0>         0.0006
  25772 WAT       -34.4320  -73.9160   -6.8330 O         1 <0>         0.0022
  25773 WAT       -34.4320  -73.9160   -6.5830 O         1 <0>         0.0060
  25774 WAT       -34.4320  -73.9160   -6.3330 O         1 <0>         0.0115
  25775 WAT       -34.4320  -73.9160   -6.0830 O         1 <0>         0.0157
  25776 WAT       -34.4320  -73.9160   -5.8330 O         1 <0>         0.0157
  25777 WAT       -34.4320  -73.9160   -5.5830 O         1 <0>         0.0133
  25778 WAT       -34.4320  -73.9160   -5.3330 O         1 <0>         0.0128
  25779 WAT       -34.4320  -73.9160   -5.0830 O         1 <0>         0.0151
  25780 WAT       -34.4320  -73.9160   -4.8330 O         1 <0>         0.0165
  25781 WAT       -34.4320  -73.9160   -4.5830 O         1 <0>         0.0142
  25782 WAT       -34.4320  -73.9160   -4.3330 O         1 <0>         0.0095
  25783 WAT       -34.4320  -73.9160   -4.0830 O         1 <0>         0.0059
  25784 WAT       -34.4320  -73.9160   -3.8330 O         1 <0>         0.0052
  25785 WAT       -34.4320  -73.9160   -3.5830 O         1 <0>         0.0071
  25786 WAT       -34.4320  -73.9160   -3.3330 O         1 <0>         0.0097
  25787 WAT       -34.4320  -73.9160   -3.0830 O         1 <0>         0.0116
  25788 WAT       -34.4320  -73.9160   -2.8330 O         1 <0>         0.0131
  25789 WAT       -34.4320  -73.9160   -2.5830 O         1 <0>         0.0143
  25790 WAT       -34.4320  -73.9160   -2.3330 O         1 <0>         0.0136
  25791 WAT       -34.4320  -73.9160   -2.0830 O         1 <0>         0.0102
  25792 WAT       -34.4320  -73.9160   -1.8330 O         1 <0>         0.0057
  25793 WAT       -34.4320  -73.9160   -1.5830 O         1 <0>         0.0022
  25794 WAT       -34.4320  -73.9160   -1.3330 O         1 <0>         0.0006
  25795 WAT       -34.4320  -73.9160   -1.0830 O         1 <0>         0.0001
  25796 WAT       -34.4320  -73.9160   -0.8330 O         1 <0>         0.0000
  25797 WAT       -34.4320  -73.9160   -0.5830 O         1 <0>         0.0000
  25798 WAT       -34.4320  -73.9160   -0.3330 O         1 <0>         0.0000
  25799 WAT       -34.4320  -73.9160   -0.0830 O         1 <0>         0.0000
  25800 WAT       -34.4320  -73.6660   -9.8330 O         1 <0>         0.0000
  25801 WAT       -34.4320  -73.6660   -9.5830 O         1 <0>         0.0000
  25802 WAT       -34.4320  -73.6660   -9.3330 O         1 <0>         0.0000
  25803 WAT       -34.4320  -73.6660   -9.0830 O         1 <0>         0.0000
  25804 WAT       -34.4320  -73.6660   -8.8330 O         1 <0>         0.0000
  25805 WAT       -34.4320  -73.6660   -8.5830 O         1 <0>         0.0000
  25806 WAT       -34.4320  -73.6660   -8.3330 O         1 <0>         0.0000
  25807 WAT       -34.4320  -73.6660   -8.0830 O         1 <0>         0.0000
  25808 WAT       -34.4320  -73.6660   -7.8330 O         1 <0>         0.0000
  25809 WAT       -34.4320  -73.6660   -7.5830 O         1 <0>         0.0001
  25810 WAT       -34.4320  -73.6660   -7.3330 O         1 <0>         0.0004
  25811 WAT       -34.4320  -73.6660   -7.0830 O         1 <0>         0.0010
  25812 WAT       -34.4320  -73.6660   -6.8330 O         1 <0>         0.0021
  25813 WAT       -34.4320  -73.6660   -6.5830 O         1 <0>         0.0046
  25814 WAT       -34.4320  -73.6660   -6.3330 O         1 <0>         0.0081
  25815 WAT       -34.4320  -73.6660   -6.0830 O         1 <0>         0.0109
  25816 WAT       -34.4320  -73.6660   -5.8330 O         1 <0>         0.0115
  25817 WAT       -34.4320  -73.6660   -5.5830 O         1 <0>         0.0118
  25818 WAT       -34.4320  -73.6660   -5.3330 O         1 <0>         0.0153
  25819 WAT       -34.4320  -73.6660   -5.0830 O         1 <0>         0.0215
  25820 WAT       -34.4320  -73.6660   -4.8330 O         1 <0>         0.0250
  25821 WAT       -34.4320  -73.6660   -4.5830 O         1 <0>         0.0218
  25822 WAT       -34.4320  -73.6660   -4.3330 O         1 <0>         0.0142
  25823 WAT       -34.4320  -73.6660   -4.0830 O         1 <0>         0.0074
  25824 WAT       -34.4320  -73.6660   -3.8330 O         1 <0>         0.0040
  25825 WAT       -34.4320  -73.6660   -3.5830 O         1 <0>         0.0037
  25826 WAT       -34.4320  -73.6660   -3.3330 O         1 <0>         0.0047
  25827 WAT       -34.4320  -73.6660   -3.0830 O         1 <0>         0.0065
  25828 WAT       -34.4320  -73.6660   -2.8330 O         1 <0>         0.0098
  25829 WAT       -34.4320  -73.6660   -2.5830 O         1 <0>         0.0141
  25830 WAT       -34.4320  -73.6660   -2.3330 O         1 <0>         0.0168
  25831 WAT       -34.4320  -73.6660   -2.0830 O         1 <0>         0.0149
  25832 WAT       -34.4320  -73.6660   -1.8330 O         1 <0>         0.0095
  25833 WAT       -34.4320  -73.6660   -1.5830 O         1 <0>         0.0043
  25834 WAT       -34.4320  -73.6660   -1.3330 O         1 <0>         0.0013
  25835 WAT       -34.4320  -73.6660   -1.0830 O         1 <0>         0.0002
  25836 WAT       -34.4320  -73.6660   -0.8330 O         1 <0>         0.0000
  25837 WAT       -34.4320  -73.6660   -0.5830 O         1 <0>         0.0000
  25838 WAT       -34.4320  -73.6660   -0.3330 O         1 <0>         0.0000
  25839 WAT       -34.4320  -73.6660   -0.0830 O         1 <0>         0.0000
  25840 WAT       -34.4320  -73.4160   -9.8330 O         1 <0>         0.0000
  25841 WAT       -34.4320  -73.4160   -9.5830 O         1 <0>         0.0000
  25842 WAT       -34.4320  -73.4160   -9.3330 O         1 <0>         0.0000
  25843 WAT       -34.4320  -73.4160   -9.0830 O         1 <0>         0.0000
  25844 WAT       -34.4320  -73.4160   -8.8330 O         1 <0>         0.0000
  25845 WAT       -34.4320  -73.4160   -8.5830 O         1 <0>         0.0000
  25846 WAT       -34.4320  -73.4160   -8.3330 O         1 <0>         0.0000
  25847 WAT       -34.4320  -73.4160   -8.0830 O         1 <0>         0.0000
  25848 WAT       -34.4320  -73.4160   -7.8330 O         1 <0>         0.0002
  25849 WAT       -34.4320  -73.4160   -7.5830 O         1 <0>         0.0010
  25850 WAT       -34.4320  -73.4160   -7.3330 O         1 <0>         0.0023
  25851 WAT       -34.4320  -73.4160   -7.0830 O         1 <0>         0.0032
  25852 WAT       -34.4320  -73.4160   -6.8330 O         1 <0>         0.0034
  25853 WAT       -34.4320  -73.4160   -6.5830 O         1 <0>         0.0036
  25854 WAT       -34.4320  -73.4160   -6.3330 O         1 <0>         0.0043
  25855 WAT       -34.4320  -73.4160   -6.0830 O         1 <0>         0.0053
  25856 WAT       -34.4320  -73.4160   -5.8330 O         1 <0>         0.0062
  25857 WAT       -34.4320  -73.4160   -5.5830 O         1 <0>         0.0088
  25858 WAT       -34.4320  -73.4160   -5.3330 O         1 <0>         0.0153
  25859 WAT       -34.4320  -73.4160   -5.0830 O         1 <0>         0.0242
  25860 WAT       -34.4320  -73.4160   -4.8330 O         1 <0>         0.0295
  25861 WAT       -34.4320  -73.4160   -4.5830 O         1 <0>         0.0261
  25862 WAT       -34.4320  -73.4160   -4.3330 O         1 <0>         0.0169
  25863 WAT       -34.4320  -73.4160   -4.0830 O         1 <0>         0.0082
  25864 WAT       -34.4320  -73.4160   -3.8330 O         1 <0>         0.0034
  25865 WAT       -34.4320  -73.4160   -3.5830 O         1 <0>         0.0020
  25866 WAT       -34.4320  -73.4160   -3.3330 O         1 <0>         0.0023
  25867 WAT       -34.4320  -73.4160   -3.0830 O         1 <0>         0.0040
  25868 WAT       -34.4320  -73.4160   -2.8330 O         1 <0>         0.0080
  25869 WAT       -34.4320  -73.4160   -2.5830 O         1 <0>         0.0140
  25870 WAT       -34.4320  -73.4160   -2.3330 O         1 <0>         0.0186
  25871 WAT       -34.4320  -73.4160   -2.0830 O         1 <0>         0.0180
  25872 WAT       -34.4320  -73.4160   -1.8330 O         1 <0>         0.0123
  25873 WAT       -34.4320  -73.4160   -1.5830 O         1 <0>         0.0059
  25874 WAT       -34.4320  -73.4160   -1.3330 O         1 <0>         0.0019
  25875 WAT       -34.4320  -73.4160   -1.0830 O         1 <0>         0.0004
  25876 WAT       -34.4320  -73.4160   -0.8330 O         1 <0>         0.0000
  25877 WAT       -34.4320  -73.4160   -0.5830 O         1 <0>         0.0000
  25878 WAT       -34.4320  -73.4160   -0.3330 O         1 <0>         0.0000
  25879 WAT       -34.4320  -73.4160   -0.0830 O         1 <0>         0.0000
  25880 WAT       -34.4320  -73.1660   -9.8330 O         1 <0>         0.0000
  25881 WAT       -34.4320  -73.1660   -9.5830 O         1 <0>         0.0000
  25882 WAT       -34.4320  -73.1660   -9.3330 O         1 <0>         0.0000
  25883 WAT       -34.4320  -73.1660   -9.0830 O         1 <0>         0.0000
  25884 WAT       -34.4320  -73.1660   -8.8330 O         1 <0>         0.0000
  25885 WAT       -34.4320  -73.1660   -8.5830 O         1 <0>         0.0000
  25886 WAT       -34.4320  -73.1660   -8.3330 O         1 <0>         0.0000
  25887 WAT       -34.4320  -73.1660   -8.0830 O         1 <0>         0.0001
  25888 WAT       -34.4320  -73.1660   -7.8330 O         1 <0>         0.0015
  25889 WAT       -34.4320  -73.1660   -7.5830 O         1 <0>         0.0053
  25890 WAT       -34.4320  -73.1660   -7.3330 O         1 <0>         0.0102
  25891 WAT       -34.4320  -73.1660   -7.0830 O         1 <0>         0.0123
  25892 WAT       -34.4320  -73.1660   -6.8330 O         1 <0>         0.0098
  25893 WAT       -34.4320  -73.1660   -6.5830 O         1 <0>         0.0056
  25894 WAT       -34.4320  -73.1660   -6.3330 O         1 <0>         0.0029
  25895 WAT       -34.4320  -73.1660   -6.0830 O         1 <0>         0.0021
  25896 WAT       -34.4320  -73.1660   -5.8330 O         1 <0>         0.0027
  25897 WAT       -34.4320  -73.1660   -5.5830 O         1 <0>         0.0056
  25898 WAT       -34.4320  -73.1660   -5.3330 O         1 <0>         0.0121
  25899 WAT       -34.4320  -73.1660   -5.0830 O         1 <0>         0.0208
  25900 WAT       -34.4320  -73.1660   -4.8330 O         1 <0>         0.0262
  25901 WAT       -34.4320  -73.1660   -4.5830 O         1 <0>         0.0237
  25902 WAT       -34.4320  -73.1660   -4.3330 O         1 <0>         0.0153
  25903 WAT       -34.4320  -73.1660   -4.0830 O         1 <0>         0.0073
  25904 WAT       -34.4320  -73.1660   -3.8330 O         1 <0>         0.0027
  25905 WAT       -34.4320  -73.1660   -3.5830 O         1 <0>         0.0011
  25906 WAT       -34.4320  -73.1660   -3.3330 O         1 <0>         0.0013
  25907 WAT       -34.4320  -73.1660   -3.0830 O         1 <0>         0.0029
  25908 WAT       -34.4320  -73.1660   -2.8330 O         1 <0>         0.0068
  25909 WAT       -34.4320  -73.1660   -2.5830 O         1 <0>         0.0123
  25910 WAT       -34.4320  -73.1660   -2.3330 O         1 <0>         0.0167
  25911 WAT       -34.4320  -73.1660   -2.0830 O         1 <0>         0.0164
  25912 WAT       -34.4320  -73.1660   -1.8330 O         1 <0>         0.0115
  25913 WAT       -34.4320  -73.1660   -1.5830 O         1 <0>         0.0056
  25914 WAT       -34.4320  -73.1660   -1.3330 O         1 <0>         0.0019
  25915 WAT       -34.4320  -73.1660   -1.0830 O         1 <0>         0.0004
  25916 WAT       -34.4320  -73.1660   -0.8330 O         1 <0>         0.0001
  25917 WAT       -34.4320  -73.1660   -0.5830 O         1 <0>         0.0000
  25918 WAT       -34.4320  -73.1660   -0.3330 O         1 <0>         0.0000
  25919 WAT       -34.4320  -73.1660   -0.0830 O         1 <0>         0.0000
  25920 WAT       -34.4320  -72.9160   -9.8330 O         1 <0>         0.0000
  25921 WAT       -34.4320  -72.9160   -9.5830 O         1 <0>         0.0000
  25922 WAT       -34.4320  -72.9160   -9.3330 O         1 <0>         0.0000
  25923 WAT       -34.4320  -72.9160   -9.0830 O         1 <0>         0.0000
  25924 WAT       -34.4320  -72.9160   -8.8330 O         1 <0>         0.0000
  25925 WAT       -34.4320  -72.9160   -8.5830 O         1 <0>         0.0000
  25926 WAT       -34.4320  -72.9160   -8.3330 O         1 <0>         0.0000
  25927 WAT       -34.4320  -72.9160   -8.0830 O         1 <0>         0.0010
  25928 WAT       -34.4320  -72.9160   -7.8330 O         1 <0>         0.0066
  25929 WAT       -34.4320  -72.9160   -7.5830 O         1 <0>         0.0195
  25930 WAT       -34.4320  -72.9160   -7.3330 O         1 <0>         0.0335
  25931 WAT       -34.4320  -72.9160   -7.0830 O         1 <0>         0.0363
  25932 WAT       -34.4320  -72.9160   -6.8330 O         1 <0>         0.0260
  25933 WAT       -34.4320  -72.9160   -6.5830 O         1 <0>         0.0124
  25934 WAT       -34.4320  -72.9160   -6.3330 O         1 <0>         0.0040
  25935 WAT       -34.4320  -72.9160   -6.0830 O         1 <0>         0.0011
  25936 WAT       -34.4320  -72.9160   -5.8330 O         1 <0>         0.0010
  25937 WAT       -34.4320  -72.9160   -5.5830 O         1 <0>         0.0029
  25938 WAT       -34.4320  -72.9160   -5.3330 O         1 <0>         0.0072
  25939 WAT       -34.4320  -72.9160   -5.0830 O         1 <0>         0.0131
  25940 WAT       -34.4320  -72.9160   -4.8330 O         1 <0>         0.0172
  25941 WAT       -34.4320  -72.9160   -4.5830 O         1 <0>         0.0159
  25942 WAT       -34.4320  -72.9160   -4.3330 O         1 <0>         0.0103
  25943 WAT       -34.4320  -72.9160   -4.0830 O         1 <0>         0.0048
  25944 WAT       -34.4320  -72.9160   -3.8330 O         1 <0>         0.0016
  25945 WAT       -34.4320  -72.9160   -3.5830 O         1 <0>         0.0006
  25946 WAT       -34.4320  -72.9160   -3.3330 O         1 <0>         0.0008
  25947 WAT       -34.4320  -72.9160   -3.0830 O         1 <0>         0.0022
  25948 WAT       -34.4320  -72.9160   -2.8330 O         1 <0>         0.0050
  25949 WAT       -34.4320  -72.9160   -2.5830 O         1 <0>         0.0087
  25950 WAT       -34.4320  -72.9160   -2.3330 O         1 <0>         0.0113
  25951 WAT       -34.4320  -72.9160   -2.0830 O         1 <0>         0.0108
  25952 WAT       -34.4320  -72.9160   -1.8330 O         1 <0>         0.0074
  25953 WAT       -34.4320  -72.9160   -1.5830 O         1 <0>         0.0037
  25954 WAT       -34.4320  -72.9160   -1.3330 O         1 <0>         0.0013
  25955 WAT       -34.4320  -72.9160   -1.0830 O         1 <0>         0.0003
  25956 WAT       -34.4320  -72.9160   -0.8330 O         1 <0>         0.0000
  25957 WAT       -34.4320  -72.9160   -0.5830 O         1 <0>         0.0000
  25958 WAT       -34.4320  -72.9160   -0.3330 O         1 <0>         0.0000
  25959 WAT       -34.4320  -72.9160   -0.0830 O         1 <0>         0.0000
  25960 WAT       -34.4320  -72.6660   -9.8330 O         1 <0>         0.0000
  25961 WAT       -34.4320  -72.6660   -9.5830 O         1 <0>         0.0000
  25962 WAT       -34.4320  -72.6660   -9.3330 O         1 <0>         0.0000
  25963 WAT       -34.4320  -72.6660   -9.0830 O         1 <0>         0.0000
  25964 WAT       -34.4320  -72.6660   -8.8330 O         1 <0>         0.0000
  25965 WAT       -34.4320  -72.6660   -8.5830 O         1 <0>         0.0000
  25966 WAT       -34.4320  -72.6660   -8.3330 O         1 <0>         0.0002
  25967 WAT       -34.4320  -72.6660   -8.0830 O         1 <0>         0.0040
  25968 WAT       -34.4320  -72.6660   -7.8330 O         1 <0>         0.0204
  25969 WAT       -34.4320  -72.6660   -7.5830 O         1 <0>         0.0528
  25970 WAT       -34.4320  -72.6660   -7.3330 O         1 <0>         0.0834
  25971 WAT       -34.4320  -72.6660   -7.0830 O         1 <0>         0.0840
  25972 WAT       -34.4320  -72.6660   -6.8330 O         1 <0>         0.0553
  25973 WAT       -34.4320  -72.6660   -6.5830 O         1 <0>         0.0240
  25974 WAT       -34.4320  -72.6660   -6.3330 O         1 <0>         0.0066
  25975 WAT       -34.4320  -72.6660   -6.0830 O         1 <0>         0.0011
  25976 WAT       -34.4320  -72.6660   -5.8330 O         1 <0>         0.0004
  25977 WAT       -34.4320  -72.6660   -5.5830 O         1 <0>         0.0011
  25978 WAT       -34.4320  -72.6660   -5.3330 O         1 <0>         0.0030
  25979 WAT       -34.4320  -72.6660   -5.0830 O         1 <0>         0.0059
  25980 WAT       -34.4320  -72.6660   -4.8330 O         1 <0>         0.0082
  25981 WAT       -34.4320  -72.6660   -4.5830 O         1 <0>         0.0077
  25982 WAT       -34.4320  -72.6660   -4.3330 O         1 <0>         0.0051
  25983 WAT       -34.4320  -72.6660   -4.0830 O         1 <0>         0.0023
  25984 WAT       -34.4320  -72.6660   -3.8330 O         1 <0>         0.0007
  25985 WAT       -34.4320  -72.6660   -3.5830 O         1 <0>         0.0003
  25986 WAT       -34.4320  -72.6660   -3.3330 O         1 <0>         0.0004
  25987 WAT       -34.4320  -72.6660   -3.0830 O         1 <0>         0.0014
  25988 WAT       -34.4320  -72.6660   -2.8330 O         1 <0>         0.0029
  25989 WAT       -34.4320  -72.6660   -2.5830 O         1 <0>         0.0047
  25990 WAT       -34.4320  -72.6660   -2.3330 O         1 <0>         0.0056
  25991 WAT       -34.4320  -72.6660   -2.0830 O         1 <0>         0.0050
  25992 WAT       -34.4320  -72.6660   -1.8330 O         1 <0>         0.0033
  25993 WAT       -34.4320  -72.6660   -1.5830 O         1 <0>         0.0016
  25994 WAT       -34.4320  -72.6660   -1.3330 O         1 <0>         0.0005
  25995 WAT       -34.4320  -72.6660   -1.0830 O         1 <0>         0.0001
  25996 WAT       -34.4320  -72.6660   -0.8330 O         1 <0>         0.0000
  25997 WAT       -34.4320  -72.6660   -0.5830 O         1 <0>         0.0000
  25998 WAT       -34.4320  -72.6660   -0.3330 O         1 <0>         0.0000
  25999 WAT       -34.4320  -72.6660   -0.0830 O         1 <0>         0.0000
  26000 WAT       -34.4320  -72.4160   -9.8330 O         1 <0>         0.0000
  26001 WAT       -34.4320  -72.4160   -9.5830 O         1 <0>         0.0000
  26002 WAT       -34.4320  -72.4160   -9.3330 O         1 <0>         0.0000
  26003 WAT       -34.4320  -72.4160   -9.0830 O         1 <0>         0.0000
  26004 WAT       -34.4320  -72.4160   -8.8330 O         1 <0>         0.0000
  26005 WAT       -34.4320  -72.4160   -8.5830 O         1 <0>         0.0000
  26006 WAT       -34.4320  -72.4160   -8.3330 O         1 <0>         0.0009
  26007 WAT       -34.4320  -72.4160   -8.0830 O         1 <0>         0.0110
  26008 WAT       -34.4320  -72.4160   -7.8330 O         1 <0>         0.0464
  26009 WAT       -34.4320  -72.4160   -7.5830 O         1 <0>         0.1092
  26010 WAT       -34.4320  -72.4160   -7.3330 O         1 <0>         0.1607
  26011 WAT       -34.4320  -72.4160   -7.0830 O         1 <0>         0.1514
  26012 WAT       -34.4320  -72.4160   -6.8330 O         1 <0>         0.0928
  26013 WAT       -34.4320  -72.4160   -6.5830 O         1 <0>         0.0371
  26014 WAT       -34.4320  -72.4160   -6.3330 O         1 <0>         0.0090
  26015 WAT       -34.4320  -72.4160   -6.0830 O         1 <0>         0.0012
  26016 WAT       -34.4320  -72.4160   -5.8330 O         1 <0>         0.0002
  26017 WAT       -34.4320  -72.4160   -5.5830 O         1 <0>         0.0003
  26018 WAT       -34.4320  -72.4160   -5.3330 O         1 <0>         0.0009
  26019 WAT       -34.4320  -72.4160   -5.0830 O         1 <0>         0.0019
  26020 WAT       -34.4320  -72.4160   -4.8330 O         1 <0>         0.0028
  26021 WAT       -34.4320  -72.4160   -4.5830 O         1 <0>         0.0027
  26022 WAT       -34.4320  -72.4160   -4.3330 O         1 <0>         0.0018
  26023 WAT       -34.4320  -72.4160   -4.0830 O         1 <0>         0.0008
  26024 WAT       -34.4320  -72.4160   -3.8330 O         1 <0>         0.0002
  26025 WAT       -34.4320  -72.4160   -3.5830 O         1 <0>         0.0001
  26026 WAT       -34.4320  -72.4160   -3.3330 O         1 <0>         0.0002
  26027 WAT       -34.4320  -72.4160   -3.0830 O         1 <0>         0.0006
  26028 WAT       -34.4320  -72.4160   -2.8330 O         1 <0>         0.0012
  26029 WAT       -34.4320  -72.4160   -2.5830 O         1 <0>         0.0018
  26030 WAT       -34.4320  -72.4160   -2.3330 O         1 <0>         0.0019
  26031 WAT       -34.4320  -72.4160   -2.0830 O         1 <0>         0.0015
  26032 WAT       -34.4320  -72.4160   -1.8330 O         1 <0>         0.0009
  26033 WAT       -34.4320  -72.4160   -1.5830 O         1 <0>         0.0004
  26034 WAT       -34.4320  -72.4160   -1.3330 O         1 <0>         0.0001
  26035 WAT       -34.4320  -72.4160   -1.0830 O         1 <0>         0.0000
  26036 WAT       -34.4320  -72.4160   -0.8330 O         1 <0>         0.0000
  26037 WAT       -34.4320  -72.4160   -0.5830 O         1 <0>         0.0000
  26038 WAT       -34.4320  -72.4160   -0.3330 O         1 <0>         0.0000
  26039 WAT       -34.4320  -72.4160   -0.0830 O         1 <0>         0.0000
  26040 WAT       -34.4320  -72.1660   -9.8330 O         1 <0>         0.0000
  26041 WAT       -34.4320  -72.1660   -9.5830 O         1 <0>         0.0000
  26042 WAT       -34.4320  -72.1660   -9.3330 O         1 <0>         0.0000
  26043 WAT       -34.4320  -72.1660   -9.0830 O         1 <0>         0.0000
  26044 WAT       -34.4320  -72.1660   -8.8330 O         1 <0>         0.0000
  26045 WAT       -34.4320  -72.1660   -8.5830 O         1 <0>         0.0000
  26046 WAT       -34.4320  -72.1660   -8.3330 O         1 <0>         0.0025
  26047 WAT       -34.4320  -72.1660   -8.0830 O         1 <0>         0.0214
  26048 WAT       -34.4320  -72.1660   -7.8330 O         1 <0>         0.0794
  26049 WAT       -34.4320  -72.1660   -7.5830 O         1 <0>         0.1744
  26050 WAT       -34.4320  -72.1660   -7.3330 O         1 <0>         0.2409
  26051 WAT       -34.4320  -72.1660   -7.0830 O         1 <0>         0.2129
  26052 WAT       -34.4320  -72.1660   -6.8330 O         1 <0>         0.1219
  26053 WAT       -34.4320  -72.1660   -6.5830 O         1 <0>         0.0450
  26054 WAT       -34.4320  -72.1660   -6.3330 O         1 <0>         0.0096
  26055 WAT       -34.4320  -72.1660   -6.0830 O         1 <0>         0.0010
  26056 WAT       -34.4320  -72.1660   -5.8330 O         1 <0>         0.0001
  26057 WAT       -34.4320  -72.1660   -5.5830 O         1 <0>         0.0001
  26058 WAT       -34.4320  -72.1660   -5.3330 O         1 <0>         0.0002
  26059 WAT       -34.4320  -72.1660   -5.0830 O         1 <0>         0.0004
  26060 WAT       -34.4320  -72.1660   -4.8330 O         1 <0>         0.0006
  26061 WAT       -34.4320  -72.1660   -4.5830 O         1 <0>         0.0007
  26062 WAT       -34.4320  -72.1660   -4.3330 O         1 <0>         0.0004
  26063 WAT       -34.4320  -72.1660   -4.0830 O         1 <0>         0.0002
  26064 WAT       -34.4320  -72.1660   -3.8330 O         1 <0>         0.0000
  26065 WAT       -34.4320  -72.1660   -3.5830 O         1 <0>         0.0000
  26066 WAT       -34.4320  -72.1660   -3.3330 O         1 <0>         0.0001
  26067 WAT       -34.4320  -72.1660   -3.0830 O         1 <0>         0.0002
  26068 WAT       -34.4320  -72.1660   -2.8330 O         1 <0>         0.0003
  26069 WAT       -34.4320  -72.1660   -2.5830 O         1 <0>         0.0004
  26070 WAT       -34.4320  -72.1660   -2.3330 O         1 <0>         0.0004
  26071 WAT       -34.4320  -72.1660   -2.0830 O         1 <0>         0.0003
  26072 WAT       -34.4320  -72.1660   -1.8330 O         1 <0>         0.0001
  26073 WAT       -34.4320  -72.1660   -1.5830 O         1 <0>         0.0001
  26074 WAT       -34.4320  -72.1660   -1.3330 O         1 <0>         0.0000
  26075 WAT       -34.4320  -72.1660   -1.0830 O         1 <0>         0.0000
  26076 WAT       -34.4320  -72.1660   -0.8330 O         1 <0>         0.0000
  26077 WAT       -34.4320  -72.1660   -0.5830 O         1 <0>         0.0000
  26078 WAT       -34.4320  -72.1660   -0.3330 O         1 <0>         0.0000
  26079 WAT       -34.4320  -72.1660   -0.0830 O         1 <0>         0.0000
  26080 WAT       -34.4320  -71.9160   -9.8330 O         1 <0>         0.0000
  26081 WAT       -34.4320  -71.9160   -9.5830 O         1 <0>         0.0000
  26082 WAT       -34.4320  -71.9160   -9.3330 O         1 <0>         0.0000
  26083 WAT       -34.4320  -71.9160   -9.0830 O         1 <0>         0.0000
  26084 WAT       -34.4320  -71.9160   -8.8330 O         1 <0>         0.0000
  26085 WAT       -34.4320  -71.9160   -8.5830 O         1 <0>         0.0001
  26086 WAT       -34.4320  -71.9160   -8.3330 O         1 <0>         0.0042
  26087 WAT       -34.4320  -71.9160   -8.0830 O         1 <0>         0.0300
  26088 WAT       -34.4320  -71.9160   -7.8330 O         1 <0>         0.1033
  26089 WAT       -34.4320  -71.9160   -7.5830 O         1 <0>         0.2145
  26090 WAT       -34.4320  -71.9160   -7.3330 O         1 <0>         0.2802
  26091 WAT       -34.4320  -71.9160   -7.0830 O         1 <0>         0.2334
  26092 WAT       -34.4320  -71.9160   -6.8330 O         1 <0>         0.1252
  26093 WAT       -34.4320  -71.9160   -6.5830 O         1 <0>         0.0428
  26094 WAT       -34.4320  -71.9160   -6.3330 O         1 <0>         0.0078
  26095 WAT       -34.4320  -71.9160   -6.0830 O         1 <0>         0.0007
  26096 WAT       -34.4320  -71.9160   -5.8330 O         1 <0>         0.0000
  26097 WAT       -34.4320  -71.9160   -5.5830 O         1 <0>         0.0000
  26098 WAT       -34.4320  -71.9160   -5.3330 O         1 <0>         0.0000
  26099 WAT       -34.4320  -71.9160   -5.0830 O         1 <0>         0.0001
  26100 WAT       -34.4320  -71.9160   -4.8330 O         1 <0>         0.0001
  26101 WAT       -34.4320  -71.9160   -4.5830 O         1 <0>         0.0001
  26102 WAT       -34.4320  -71.9160   -4.3330 O         1 <0>         0.0001
  26103 WAT       -34.4320  -71.9160   -4.0830 O         1 <0>         0.0000
  26104 WAT       -34.4320  -71.9160   -3.8330 O         1 <0>         0.0000
  26105 WAT       -34.4320  -71.9160   -3.5830 O         1 <0>         0.0000
  26106 WAT       -34.4320  -71.9160   -3.3330 O         1 <0>         0.0000
  26107 WAT       -34.4320  -71.9160   -3.0830 O         1 <0>         0.0000
  26108 WAT       -34.4320  -71.9160   -2.8330 O         1 <0>         0.0000
  26109 WAT       -34.4320  -71.9160   -2.5830 O         1 <0>         0.0001
  26110 WAT       -34.4320  -71.9160   -2.3330 O         1 <0>         0.0000
  26111 WAT       -34.4320  -71.9160   -2.0830 O         1 <0>         0.0000
  26112 WAT       -34.4320  -71.9160   -1.8330 O         1 <0>         0.0000
  26113 WAT       -34.4320  -71.9160   -1.5830 O         1 <0>         0.0000
  26114 WAT       -34.4320  -71.9160   -1.3330 O         1 <0>         0.0000
  26115 WAT       -34.4320  -71.9160   -1.0830 O         1 <0>         0.0000
  26116 WAT       -34.4320  -71.9160   -0.8330 O         1 <0>         0.0000
  26117 WAT       -34.4320  -71.9160   -0.5830 O         1 <0>         0.0000
  26118 WAT       -34.4320  -71.9160   -0.3330 O         1 <0>         0.0000
  26119 WAT       -34.4320  -71.9160   -0.0830 O         1 <0>         0.0000
  26120 WAT       -34.4320  -71.6660   -9.8330 O         1 <0>         0.0000
  26121 WAT       -34.4320  -71.6660   -9.5830 O         1 <0>         0.0000
  26122 WAT       -34.4320  -71.6660   -9.3330 O         1 <0>         0.0000
  26123 WAT       -34.4320  -71.6660   -9.0830 O         1 <0>         0.0000
  26124 WAT       -34.4320  -71.6660   -8.8330 O         1 <0>         0.0000
  26125 WAT       -34.4320  -71.6660   -8.5830 O         1 <0>         0.0002
  26126 WAT       -34.4320  -71.6660   -8.3330 O         1 <0>         0.0047
  26127 WAT       -34.4320  -71.6660   -8.0830 O         1 <0>         0.0307
  26128 WAT       -34.4320  -71.6660   -7.8330 O         1 <0>         0.1010
  26129 WAT       -34.4320  -71.6660   -7.5830 O         1 <0>         0.2009
  26130 WAT       -34.4320  -71.6660   -7.3330 O         1 <0>         0.2505
  26131 WAT       -34.4320  -71.6660   -7.0830 O         1 <0>         0.1982
  26132 WAT       -34.4320  -71.6660   -6.8330 O         1 <0>         0.1004
  26133 WAT       -34.4320  -71.6660   -6.5830 O         1 <0>         0.0316
  26134 WAT       -34.4320  -71.6660   -6.3330 O         1 <0>         0.0048
  26135 WAT       -34.4320  -71.6660   -6.0830 O         1 <0>         0.0003
  26136 WAT       -34.4320  -71.6660   -5.8330 O         1 <0>         0.0000
  26137 WAT       -34.4320  -71.6660   -5.5830 O         1 <0>         0.0000
  26138 WAT       -34.4320  -71.6660   -5.3330 O         1 <0>         0.0000
  26139 WAT       -34.4320  -71.6660   -5.0830 O         1 <0>         0.0000
  26140 WAT       -34.4320  -71.6660   -4.8330 O         1 <0>         0.0000
  26141 WAT       -34.4320  -71.6660   -4.5830 O         1 <0>         0.0000
  26142 WAT       -34.4320  -71.6660   -4.3330 O         1 <0>         0.0000
  26143 WAT       -34.4320  -71.6660   -4.0830 O         1 <0>         0.0000
  26144 WAT       -34.4320  -71.6660   -3.8330 O         1 <0>         0.0000
  26145 WAT       -34.4320  -71.6660   -3.5830 O         1 <0>         0.0000
  26146 WAT       -34.4320  -71.6660   -3.3330 O         1 <0>         0.0000
  26147 WAT       -34.4320  -71.6660   -3.0830 O         1 <0>         0.0000
  26148 WAT       -34.4320  -71.6660   -2.8330 O         1 <0>         0.0000
  26149 WAT       -34.4320  -71.6660   -2.5830 O         1 <0>         0.0000
  26150 WAT       -34.4320  -71.6660   -2.3330 O         1 <0>         0.0000
  26151 WAT       -34.4320  -71.6660   -2.0830 O         1 <0>         0.0000
  26152 WAT       -34.4320  -71.6660   -1.8330 O         1 <0>         0.0000
  26153 WAT       -34.4320  -71.6660   -1.5830 O         1 <0>         0.0000
  26154 WAT       -34.4320  -71.6660   -1.3330 O         1 <0>         0.0000
  26155 WAT       -34.4320  -71.6660   -1.0830 O         1 <0>         0.0000
  26156 WAT       -34.4320  -71.6660   -0.8330 O         1 <0>         0.0000
  26157 WAT       -34.4320  -71.6660   -0.5830 O         1 <0>         0.0000
  26158 WAT       -34.4320  -71.6660   -0.3330 O         1 <0>         0.0000
  26159 WAT       -34.4320  -71.6660   -0.0830 O         1 <0>         0.0000
  26160 WAT       -34.4320  -71.4160   -9.8330 O         1 <0>         0.0000
  26161 WAT       -34.4320  -71.4160   -9.5830 O         1 <0>         0.0000
  26162 WAT       -34.4320  -71.4160   -9.3330 O         1 <0>         0.0000
  26163 WAT       -34.4320  -71.4160   -9.0830 O         1 <0>         0.0000
  26164 WAT       -34.4320  -71.4160   -8.8330 O         1 <0>         0.0000
  26165 WAT       -34.4320  -71.4160   -8.5830 O         1 <0>         0.0002
  26166 WAT       -34.4320  -71.4160   -8.3330 O         1 <0>         0.0036
  26167 WAT       -34.4320  -71.4160   -8.0830 O         1 <0>         0.0229
  26168 WAT       -34.4320  -71.4160   -7.8330 O         1 <0>         0.0734
  26169 WAT       -34.4320  -71.4160   -7.5830 O         1 <0>         0.1415
  26170 WAT       -34.4320  -71.4160   -7.3330 O         1 <0>         0.1704
  26171 WAT       -34.4320  -71.4160   -7.0830 O         1 <0>         0.1296
  26172 WAT       -34.4320  -71.4160   -6.8330 O         1 <0>         0.0623
  26173 WAT       -34.4320  -71.4160   -6.5830 O         1 <0>         0.0178
  26174 WAT       -34.4320  -71.4160   -6.3330 O         1 <0>         0.0022
  26175 WAT       -34.4320  -71.4160   -6.0830 O         1 <0>         0.0001
  26176 WAT       -34.4320  -71.4160   -5.8330 O         1 <0>         0.0000
  26177 WAT       -34.4320  -71.4160   -5.5830 O         1 <0>         0.0000
  26178 WAT       -34.4320  -71.4160   -5.3330 O         1 <0>         0.0000
  26179 WAT       -34.4320  -71.4160   -5.0830 O         1 <0>         0.0000
  26180 WAT       -34.4320  -71.4160   -4.8330 O         1 <0>         0.0000
  26181 WAT       -34.4320  -71.4160   -4.5830 O         1 <0>         0.0000
  26182 WAT       -34.4320  -71.4160   -4.3330 O         1 <0>         0.0000
  26183 WAT       -34.4320  -71.4160   -4.0830 O         1 <0>         0.0000
  26184 WAT       -34.4320  -71.4160   -3.8330 O         1 <0>         0.0000
  26185 WAT       -34.4320  -71.4160   -3.5830 O         1 <0>         0.0000
  26186 WAT       -34.4320  -71.4160   -3.3330 O         1 <0>         0.0000
  26187 WAT       -34.4320  -71.4160   -3.0830 O         1 <0>         0.0000
  26188 WAT       -34.4320  -71.4160   -2.8330 O         1 <0>         0.0000
  26189 WAT       -34.4320  -71.4160   -2.5830 O         1 <0>         0.0000
  26190 WAT       -34.4320  -71.4160   -2.3330 O         1 <0>         0.0000
  26191 WAT       -34.4320  -71.4160   -2.0830 O         1 <0>         0.0000
  26192 WAT       -34.4320  -71.4160   -1.8330 O         1 <0>         0.0000
  26193 WAT       -34.4320  -71.4160   -1.5830 O         1 <0>         0.0000
  26194 WAT       -34.4320  -71.4160   -1.3330 O         1 <0>         0.0000
  26195 WAT       -34.4320  -71.4160   -1.0830 O         1 <0>         0.0000
  26196 WAT       -34.4320  -71.4160   -0.8330 O         1 <0>         0.0000
  26197 WAT       -34.4320  -71.4160   -0.5830 O         1 <0>         0.0000
  26198 WAT       -34.4320  -71.4160   -0.3330 O         1 <0>         0.0000
  26199 WAT       -34.4320  -71.4160   -0.0830 O         1 <0>         0.0000
  26200 WAT       -34.4320  -71.1660   -9.8330 O         1 <0>         0.0000
  26201 WAT       -34.4320  -71.1660   -9.5830 O         1 <0>         0.0000
  26202 WAT       -34.4320  -71.1660   -9.3330 O         1 <0>         0.0000
  26203 WAT       -34.4320  -71.1660   -9.0830 O         1 <0>         0.0000
  26204 WAT       -34.4320  -71.1660   -8.8330 O         1 <0>         0.0000
  26205 WAT       -34.4320  -71.1660   -8.5830 O         1 <0>         0.0001
  26206 WAT       -34.4320  -71.1660   -8.3330 O         1 <0>         0.0018
  26207 WAT       -34.4320  -71.1660   -8.0830 O         1 <0>         0.0122
  26208 WAT       -34.4320  -71.1660   -7.8330 O         1 <0>         0.0391
  26209 WAT       -34.4320  -71.1660   -7.5830 O         1 <0>         0.0744
  26210 WAT       -34.4320  -71.1660   -7.3330 O         1 <0>         0.0878
  26211 WAT       -34.4320  -71.1660   -7.0830 O         1 <0>         0.0649
  26212 WAT       -34.4320  -71.1660   -6.8330 O         1 <0>         0.0299
  26213 WAT       -34.4320  -71.1660   -6.5830 O         1 <0>         0.0076
  26214 WAT       -34.4320  -71.1660   -6.3330 O         1 <0>         0.0008
  26215 WAT       -34.4320  -71.1660   -6.0830 O         1 <0>         0.0000
  26216 WAT       -34.4320  -71.1660   -5.8330 O         1 <0>         0.0000
  26217 WAT       -34.4320  -71.1660   -5.5830 O         1 <0>         0.0000
  26218 WAT       -34.4320  -71.1660   -5.3330 O         1 <0>         0.0000
  26219 WAT       -34.4320  -71.1660   -5.0830 O         1 <0>         0.0000
  26220 WAT       -34.4320  -71.1660   -4.8330 O         1 <0>         0.0000
  26221 WAT       -34.4320  -71.1660   -4.5830 O         1 <0>         0.0000
  26222 WAT       -34.4320  -71.1660   -4.3330 O         1 <0>         0.0000
  26223 WAT       -34.4320  -71.1660   -4.0830 O         1 <0>         0.0000
  26224 WAT       -34.4320  -71.1660   -3.8330 O         1 <0>         0.0000
  26225 WAT       -34.4320  -71.1660   -3.5830 O         1 <0>         0.0000
  26226 WAT       -34.4320  -71.1660   -3.3330 O         1 <0>         0.0000
  26227 WAT       -34.4320  -71.1660   -3.0830 O         1 <0>         0.0000
  26228 WAT       -34.4320  -71.1660   -2.8330 O         1 <0>         0.0000
  26229 WAT       -34.4320  -71.1660   -2.5830 O         1 <0>         0.0000
  26230 WAT       -34.4320  -71.1660   -2.3330 O         1 <0>         0.0000
  26231 WAT       -34.4320  -71.1660   -2.0830 O         1 <0>         0.0000
  26232 WAT       -34.4320  -71.1660   -1.8330 O         1 <0>         0.0000
  26233 WAT       -34.4320  -71.1660   -1.5830 O         1 <0>         0.0000
  26234 WAT       -34.4320  -71.1660   -1.3330 O         1 <0>         0.0000
  26235 WAT       -34.4320  -71.1660   -1.0830 O         1 <0>         0.0000
  26236 WAT       -34.4320  -71.1660   -0.8330 O         1 <0>         0.0000
  26237 WAT       -34.4320  -71.1660   -0.5830 O         1 <0>         0.0000
  26238 WAT       -34.4320  -71.1660   -0.3330 O         1 <0>         0.0000
  26239 WAT       -34.4320  -71.1660   -0.0830 O         1 <0>         0.0000
  26240 WAT       -34.4320  -70.9160   -9.8330 O         1 <0>         0.0000
  26241 WAT       -34.4320  -70.9160   -9.5830 O         1 <0>         0.0000
  26242 WAT       -34.4320  -70.9160   -9.3330 O         1 <0>         0.0000
  26243 WAT       -34.4320  -70.9160   -9.0830 O         1 <0>         0.0000
  26244 WAT       -34.4320  -70.9160   -8.8330 O         1 <0>         0.0000
  26245 WAT       -34.4320  -70.9160   -8.5830 O         1 <0>         0.0000
  26246 WAT       -34.4320  -70.9160   -8.3330 O         1 <0>         0.0006
  26247 WAT       -34.4320  -70.9160   -8.0830 O         1 <0>         0.0045
  26248 WAT       -34.4320  -70.9160   -7.8330 O         1 <0>         0.0150
  26249 WAT       -34.4320  -70.9160   -7.5830 O         1 <0>         0.0289
  26250 WAT       -34.4320  -70.9160   -7.3330 O         1 <0>         0.0340
  26251 WAT       -34.4320  -70.9160   -7.0830 O         1 <0>         0.0249
  26252 WAT       -34.4320  -70.9160   -6.8330 O         1 <0>         0.0110
  26253 WAT       -34.4320  -70.9160   -6.5830 O         1 <0>         0.0027
  26254 WAT       -34.4320  -70.9160   -6.3330 O         1 <0>         0.0003
  26255 WAT       -34.4320  -70.9160   -6.0830 O         1 <0>         0.0000
  26256 WAT       -34.4320  -70.9160   -5.8330 O         1 <0>         0.0000
  26257 WAT       -34.4320  -70.9160   -5.5830 O         1 <0>         0.0000
  26258 WAT       -34.4320  -70.9160   -5.3330 O         1 <0>         0.0000
  26259 WAT       -34.4320  -70.9160   -5.0830 O         1 <0>         0.0000
  26260 WAT       -34.4320  -70.9160   -4.8330 O         1 <0>         0.0000
  26261 WAT       -34.4320  -70.9160   -4.5830 O         1 <0>         0.0000
  26262 WAT       -34.4320  -70.9160   -4.3330 O         1 <0>         0.0000
  26263 WAT       -34.4320  -70.9160   -4.0830 O         1 <0>         0.0000
  26264 WAT       -34.4320  -70.9160   -3.8330 O         1 <0>         0.0000
  26265 WAT       -34.4320  -70.9160   -3.5830 O         1 <0>         0.0000
  26266 WAT       -34.4320  -70.9160   -3.3330 O         1 <0>         0.0000
  26267 WAT       -34.4320  -70.9160   -3.0830 O         1 <0>         0.0000
  26268 WAT       -34.4320  -70.9160   -2.8330 O         1 <0>         0.0000
  26269 WAT       -34.4320  -70.9160   -2.5830 O         1 <0>         0.0000
  26270 WAT       -34.4320  -70.9160   -2.3330 O         1 <0>         0.0000
  26271 WAT       -34.4320  -70.9160   -2.0830 O         1 <0>         0.0000
  26272 WAT       -34.4320  -70.9160   -1.8330 O         1 <0>         0.0000
  26273 WAT       -34.4320  -70.9160   -1.5830 O         1 <0>         0.0000
  26274 WAT       -34.4320  -70.9160   -1.3330 O         1 <0>         0.0000
  26275 WAT       -34.4320  -70.9160   -1.0830 O         1 <0>         0.0000
  26276 WAT       -34.4320  -70.9160   -0.8330 O         1 <0>         0.0000
  26277 WAT       -34.4320  -70.9160   -0.5830 O         1 <0>         0.0000
  26278 WAT       -34.4320  -70.9160   -0.3330 O         1 <0>         0.0000
  26279 WAT       -34.4320  -70.9160   -0.0830 O         1 <0>         0.0000
  26280 WAT       -34.4320  -70.6660   -9.8330 O         1 <0>         0.0000
  26281 WAT       -34.4320  -70.6660   -9.5830 O         1 <0>         0.0000
  26282 WAT       -34.4320  -70.6660   -9.3330 O         1 <0>         0.0000
  26283 WAT       -34.4320  -70.6660   -9.0830 O         1 <0>         0.0000
  26284 WAT       -34.4320  -70.6660   -8.8330 O         1 <0>         0.0000
  26285 WAT       -34.4320  -70.6660   -8.5830 O         1 <0>         0.0000
  26286 WAT       -34.4320  -70.6660   -8.3330 O         1 <0>         0.0001
  26287 WAT       -34.4320  -70.6660   -8.0830 O         1 <0>         0.0011
  26288 WAT       -34.4320  -70.6660   -7.8330 O         1 <0>         0.0040
  26289 WAT       -34.4320  -70.6660   -7.5830 O         1 <0>         0.0081
  26290 WAT       -34.4320  -70.6660   -7.3330 O         1 <0>         0.0099
  26291 WAT       -34.4320  -70.6660   -7.0830 O         1 <0>         0.0075
  26292 WAT       -34.4320  -70.6660   -6.8330 O         1 <0>         0.0035
  26293 WAT       -34.4320  -70.6660   -6.5830 O         1 <0>         0.0010
  26294 WAT       -34.4320  -70.6660   -6.3330 O         1 <0>         0.0002
  26295 WAT       -34.4320  -70.6660   -6.0830 O         1 <0>         0.0000
  26296 WAT       -34.4320  -70.6660   -5.8330 O         1 <0>         0.0000
  26297 WAT       -34.4320  -70.6660   -5.5830 O         1 <0>         0.0000
  26298 WAT       -34.4320  -70.6660   -5.3330 O         1 <0>         0.0000
  26299 WAT       -34.4320  -70.6660   -5.0830 O         1 <0>         0.0000
  26300 WAT       -34.4320  -70.6660   -4.8330 O         1 <0>         0.0000
  26301 WAT       -34.4320  -70.6660   -4.5830 O         1 <0>         0.0000
  26302 WAT       -34.4320  -70.6660   -4.3330 O         1 <0>         0.0000
  26303 WAT       -34.4320  -70.6660   -4.0830 O         1 <0>         0.0000
  26304 WAT       -34.4320  -70.6660   -3.8330 O         1 <0>         0.0000
  26305 WAT       -34.4320  -70.6660   -3.5830 O         1 <0>         0.0000
  26306 WAT       -34.4320  -70.6660   -3.3330 O         1 <0>         0.0000
  26307 WAT       -34.4320  -70.6660   -3.0830 O         1 <0>         0.0000
  26308 WAT       -34.4320  -70.6660   -2.8330 O         1 <0>         0.0000
  26309 WAT       -34.4320  -70.6660   -2.5830 O         1 <0>         0.0000
  26310 WAT       -34.4320  -70.6660   -2.3330 O         1 <0>         0.0000
  26311 WAT       -34.4320  -70.6660   -2.0830 O         1 <0>         0.0000
  26312 WAT       -34.4320  -70.6660   -1.8330 O         1 <0>         0.0000
  26313 WAT       -34.4320  -70.6660   -1.5830 O         1 <0>         0.0000
  26314 WAT       -34.4320  -70.6660   -1.3330 O         1 <0>         0.0000
  26315 WAT       -34.4320  -70.6660   -1.0830 O         1 <0>         0.0000
  26316 WAT       -34.4320  -70.6660   -0.8330 O         1 <0>         0.0000
  26317 WAT       -34.4320  -70.6660   -0.5830 O         1 <0>         0.0000
  26318 WAT       -34.4320  -70.6660   -0.3330 O         1 <0>         0.0000
  26319 WAT       -34.4320  -70.6660   -0.0830 O         1 <0>         0.0000
  26320 WAT       -34.4320  -70.4160   -9.8330 O         1 <0>         0.0000
  26321 WAT       -34.4320  -70.4160   -9.5830 O         1 <0>         0.0000
  26322 WAT       -34.4320  -70.4160   -9.3330 O         1 <0>         0.0000
  26323 WAT       -34.4320  -70.4160   -9.0830 O         1 <0>         0.0000
  26324 WAT       -34.4320  -70.4160   -8.8330 O         1 <0>         0.0000
  26325 WAT       -34.4320  -70.4160   -8.5830 O         1 <0>         0.0000
  26326 WAT       -34.4320  -70.4160   -8.3330 O         1 <0>         0.0000
  26327 WAT       -34.4320  -70.4160   -8.0830 O         1 <0>         0.0001
  26328 WAT       -34.4320  -70.4160   -7.8330 O         1 <0>         0.0007
  26329 WAT       -34.4320  -70.4160   -7.5830 O         1 <0>         0.0016
  26330 WAT       -34.4320  -70.4160   -7.3330 O         1 <0>         0.0022
  26331 WAT       -34.4320  -70.4160   -7.0830 O         1 <0>         0.0020
  26332 WAT       -34.4320  -70.4160   -6.8330 O         1 <0>         0.0012
  26333 WAT       -34.4320  -70.4160   -6.5830 O         1 <0>         0.0005
  26334 WAT       -34.4320  -70.4160   -6.3330 O         1 <0>         0.0002
  26335 WAT       -34.4320  -70.4160   -6.0830 O         1 <0>         0.0001
  26336 WAT       -34.4320  -70.4160   -5.8330 O         1 <0>         0.0000
  26337 WAT       -34.4320  -70.4160   -5.5830 O         1 <0>         0.0000
  26338 WAT       -34.4320  -70.4160   -5.3330 O         1 <0>         0.0000
  26339 WAT       -34.4320  -70.4160   -5.0830 O         1 <0>         0.0000
  26340 WAT       -34.4320  -70.4160   -4.8330 O         1 <0>         0.0000
  26341 WAT       -34.4320  -70.4160   -4.5830 O         1 <0>         0.0000
  26342 WAT       -34.4320  -70.4160   -4.3330 O         1 <0>         0.0000
  26343 WAT       -34.4320  -70.4160   -4.0830 O         1 <0>         0.0000
  26344 WAT       -34.4320  -70.4160   -3.8330 O         1 <0>         0.0000
  26345 WAT       -34.4320  -70.4160   -3.5830 O         1 <0>         0.0000
  26346 WAT       -34.4320  -70.4160   -3.3330 O         1 <0>         0.0000
  26347 WAT       -34.4320  -70.4160   -3.0830 O         1 <0>         0.0000
  26348 WAT       -34.4320  -70.4160   -2.8330 O         1 <0>         0.0000
  26349 WAT       -34.4320  -70.4160   -2.5830 O         1 <0>         0.0000
  26350 WAT       -34.4320  -70.4160   -2.3330 O         1 <0>         0.0000
  26351 WAT       -34.4320  -70.4160   -2.0830 O         1 <0>         0.0000
  26352 WAT       -34.4320  -70.4160   -1.8330 O         1 <0>         0.0000
  26353 WAT       -34.4320  -70.4160   -1.5830 O         1 <0>         0.0000
  26354 WAT       -34.4320  -70.4160   -1.3330 O         1 <0>         0.0000
  26355 WAT       -34.4320  -70.4160   -1.0830 O         1 <0>         0.0000
  26356 WAT       -34.4320  -70.4160   -0.8330 O         1 <0>         0.0000
  26357 WAT       -34.4320  -70.4160   -0.5830 O         1 <0>         0.0000
  26358 WAT       -34.4320  -70.4160   -0.3330 O         1 <0>         0.0000
  26359 WAT       -34.4320  -70.4160   -0.0830 O         1 <0>         0.0000
  26360 WAT       -34.4320  -70.1660   -9.8330 O         1 <0>         0.0000
  26361 WAT       -34.4320  -70.1660   -9.5830 O         1 <0>         0.0000
  26362 WAT       -34.4320  -70.1660   -9.3330 O         1 <0>         0.0000
  26363 WAT       -34.4320  -70.1660   -9.0830 O         1 <0>         0.0000
  26364 WAT       -34.4320  -70.1660   -8.8330 O         1 <0>         0.0000
  26365 WAT       -34.4320  -70.1660   -8.5830 O         1 <0>         0.0000
  26366 WAT       -34.4320  -70.1660   -8.3330 O         1 <0>         0.0000
  26367 WAT       -34.4320  -70.1660   -8.0830 O         1 <0>         0.0000
  26368 WAT       -34.4320  -70.1660   -7.8330 O         1 <0>         0.0001
  26369 WAT       -34.4320  -70.1660   -7.5830 O         1 <0>         0.0002
  26370 WAT       -34.4320  -70.1660   -7.3330 O         1 <0>         0.0004
  26371 WAT       -34.4320  -70.1660   -7.0830 O         1 <0>         0.0005
  26372 WAT       -34.4320  -70.1660   -6.8330 O         1 <0>         0.0005
  26373 WAT       -34.4320  -70.1660   -6.5830 O         1 <0>         0.0003
  26374 WAT       -34.4320  -70.1660   -6.3330 O         1 <0>         0.0001
  26375 WAT       -34.4320  -70.1660   -6.0830 O         1 <0>         0.0000
  26376 WAT       -34.4320  -70.1660   -5.8330 O         1 <0>         0.0000
  26377 WAT       -34.4320  -70.1660   -5.5830 O         1 <0>         0.0000
  26378 WAT       -34.4320  -70.1660   -5.3330 O         1 <0>         0.0000
  26379 WAT       -34.4320  -70.1660   -5.0830 O         1 <0>         0.0000
  26380 WAT       -34.4320  -70.1660   -4.8330 O         1 <0>         0.0000
  26381 WAT       -34.4320  -70.1660   -4.5830 O         1 <0>         0.0000
  26382 WAT       -34.4320  -70.1660   -4.3330 O         1 <0>         0.0000
  26383 WAT       -34.4320  -70.1660   -4.0830 O         1 <0>         0.0000
  26384 WAT       -34.4320  -70.1660   -3.8330 O         1 <0>         0.0000
  26385 WAT       -34.4320  -70.1660   -3.5830 O         1 <0>         0.0000
  26386 WAT       -34.4320  -70.1660   -3.3330 O         1 <0>         0.0000
  26387 WAT       -34.4320  -70.1660   -3.0830 O         1 <0>         0.0000
  26388 WAT       -34.4320  -70.1660   -2.8330 O         1 <0>         0.0000
  26389 WAT       -34.4320  -70.1660   -2.5830 O         1 <0>         0.0000
  26390 WAT       -34.4320  -70.1660   -2.3330 O         1 <0>         0.0000
  26391 WAT       -34.4320  -70.1660   -2.0830 O         1 <0>         0.0000
  26392 WAT       -34.4320  -70.1660   -1.8330 O         1 <0>         0.0000
  26393 WAT       -34.4320  -70.1660   -1.5830 O         1 <0>         0.0000
  26394 WAT       -34.4320  -70.1660   -1.3330 O         1 <0>         0.0000
  26395 WAT       -34.4320  -70.1660   -1.0830 O         1 <0>         0.0000
  26396 WAT       -34.4320  -70.1660   -0.8330 O         1 <0>         0.0000
  26397 WAT       -34.4320  -70.1660   -0.5830 O         1 <0>         0.0000
  26398 WAT       -34.4320  -70.1660   -0.3330 O         1 <0>         0.0000
  26399 WAT       -34.4320  -70.1660   -0.0830 O         1 <0>         0.0000
  26400 WAT       -34.4320  -69.9160   -9.8330 O         1 <0>         0.0000
  26401 WAT       -34.4320  -69.9160   -9.5830 O         1 <0>         0.0000
  26402 WAT       -34.4320  -69.9160   -9.3330 O         1 <0>         0.0000
  26403 WAT       -34.4320  -69.9160   -9.0830 O         1 <0>         0.0000
  26404 WAT       -34.4320  -69.9160   -8.8330 O         1 <0>         0.0000
  26405 WAT       -34.4320  -69.9160   -8.5830 O         1 <0>         0.0000
  26406 WAT       -34.4320  -69.9160   -8.3330 O         1 <0>         0.0000
  26407 WAT       -34.4320  -69.9160   -8.0830 O         1 <0>         0.0000
  26408 WAT       -34.4320  -69.9160   -7.8330 O         1 <0>         0.0000
  26409 WAT       -34.4320  -69.9160   -7.5830 O         1 <0>         0.0000
  26410 WAT       -34.4320  -69.9160   -7.3330 O         1 <0>         0.0001
  26411 WAT       -34.4320  -69.9160   -7.0830 O         1 <0>         0.0001
  26412 WAT       -34.4320  -69.9160   -6.8330 O         1 <0>         0.0001
  26413 WAT       -34.4320  -69.9160   -6.5830 O         1 <0>         0.0001
  26414 WAT       -34.4320  -69.9160   -6.3330 O         1 <0>         0.0001
  26415 WAT       -34.4320  -69.9160   -6.0830 O         1 <0>         0.0000
  26416 WAT       -34.4320  -69.9160   -5.8330 O         1 <0>         0.0000
  26417 WAT       -34.4320  -69.9160   -5.5830 O         1 <0>         0.0000
  26418 WAT       -34.4320  -69.9160   -5.3330 O         1 <0>         0.0000
  26419 WAT       -34.4320  -69.9160   -5.0830 O         1 <0>         0.0000
  26420 WAT       -34.4320  -69.9160   -4.8330 O         1 <0>         0.0000
  26421 WAT       -34.4320  -69.9160   -4.5830 O         1 <0>         0.0000
  26422 WAT       -34.4320  -69.9160   -4.3330 O         1 <0>         0.0000
  26423 WAT       -34.4320  -69.9160   -4.0830 O         1 <0>         0.0000
  26424 WAT       -34.4320  -69.9160   -3.8330 O         1 <0>         0.0000
  26425 WAT       -34.4320  -69.9160   -3.5830 O         1 <0>         0.0000
  26426 WAT       -34.4320  -69.9160   -3.3330 O         1 <0>         0.0000
  26427 WAT       -34.4320  -69.9160   -3.0830 O         1 <0>         0.0000
  26428 WAT       -34.4320  -69.9160   -2.8330 O         1 <0>         0.0000
  26429 WAT       -34.4320  -69.9160   -2.5830 O         1 <0>         0.0000
  26430 WAT       -34.4320  -69.9160   -2.3330 O         1 <0>         0.0000
  26431 WAT       -34.4320  -69.9160   -2.0830 O         1 <0>         0.0000
  26432 WAT       -34.4320  -69.9160   -1.8330 O         1 <0>         0.0000
  26433 WAT       -34.4320  -69.9160   -1.5830 O         1 <0>         0.0000
  26434 WAT       -34.4320  -69.9160   -1.3330 O         1 <0>         0.0000
  26435 WAT       -34.4320  -69.9160   -1.0830 O         1 <0>         0.0000
  26436 WAT       -34.4320  -69.9160   -0.8330 O         1 <0>         0.0000
  26437 WAT       -34.4320  -69.9160   -0.5830 O         1 <0>         0.0000
  26438 WAT       -34.4320  -69.9160   -0.3330 O         1 <0>         0.0000
  26439 WAT       -34.4320  -69.9160   -0.0830 O         1 <0>         0.0000
  26440 WAT       -34.4320  -69.6660   -9.8330 O         1 <0>         0.0000
  26441 WAT       -34.4320  -69.6660   -9.5830 O         1 <0>         0.0000
  26442 WAT       -34.4320  -69.6660   -9.3330 O         1 <0>         0.0000
  26443 WAT       -34.4320  -69.6660   -9.0830 O         1 <0>         0.0000
  26444 WAT       -34.4320  -69.6660   -8.8330 O         1 <0>         0.0000
  26445 WAT       -34.4320  -69.6660   -8.5830 O         1 <0>         0.0000
  26446 WAT       -34.4320  -69.6660   -8.3330 O         1 <0>         0.0000
  26447 WAT       -34.4320  -69.6660   -8.0830 O         1 <0>         0.0000
  26448 WAT       -34.4320  -69.6660   -7.8330 O         1 <0>         0.0000
  26449 WAT       -34.4320  -69.6660   -7.5830 O         1 <0>         0.0000
  26450 WAT       -34.4320  -69.6660   -7.3330 O         1 <0>         0.0000
  26451 WAT       -34.4320  -69.6660   -7.0830 O         1 <0>         0.0000
  26452 WAT       -34.4320  -69.6660   -6.8330 O         1 <0>         0.0000
  26453 WAT       -34.4320  -69.6660   -6.5830 O         1 <0>         0.0000
  26454 WAT       -34.4320  -69.6660   -6.3330 O         1 <0>         0.0000
  26455 WAT       -34.4320  -69.6660   -6.0830 O         1 <0>         0.0000
  26456 WAT       -34.4320  -69.6660   -5.8330 O         1 <0>         0.0000
  26457 WAT       -34.4320  -69.6660   -5.5830 O         1 <0>         0.0000
  26458 WAT       -34.4320  -69.6660   -5.3330 O         1 <0>         0.0000
  26459 WAT       -34.4320  -69.6660   -5.0830 O         1 <0>         0.0000
  26460 WAT       -34.4320  -69.6660   -4.8330 O         1 <0>         0.0000
  26461 WAT       -34.4320  -69.6660   -4.5830 O         1 <0>         0.0000
  26462 WAT       -34.4320  -69.6660   -4.3330 O         1 <0>         0.0000
  26463 WAT       -34.4320  -69.6660   -4.0830 O         1 <0>         0.0000
  26464 WAT       -34.4320  -69.6660   -3.8330 O         1 <0>         0.0000
  26465 WAT       -34.4320  -69.6660   -3.5830 O         1 <0>         0.0000
  26466 WAT       -34.4320  -69.6660   -3.3330 O         1 <0>         0.0000
  26467 WAT       -34.4320  -69.6660   -3.0830 O         1 <0>         0.0000
  26468 WAT       -34.4320  -69.6660   -2.8330 O         1 <0>         0.0000
  26469 WAT       -34.4320  -69.6660   -2.5830 O         1 <0>         0.0000
  26470 WAT       -34.4320  -69.6660   -2.3330 O         1 <0>         0.0000
  26471 WAT       -34.4320  -69.6660   -2.0830 O         1 <0>         0.0000
  26472 WAT       -34.4320  -69.6660   -1.8330 O         1 <0>         0.0000
  26473 WAT       -34.4320  -69.6660   -1.5830 O         1 <0>         0.0000
  26474 WAT       -34.4320  -69.6660   -1.3330 O         1 <0>         0.0000
  26475 WAT       -34.4320  -69.6660   -1.0830 O         1 <0>         0.0000
  26476 WAT       -34.4320  -69.6660   -0.8330 O         1 <0>         0.0000
  26477 WAT       -34.4320  -69.6660   -0.5830 O         1 <0>         0.0000
  26478 WAT       -34.4320  -69.6660   -0.3330 O         1 <0>         0.0000
  26479 WAT       -34.4320  -69.6660   -0.0830 O         1 <0>         0.0000
  26480 WAT       -34.4320  -69.4160   -9.8330 O         1 <0>         0.0000
  26481 WAT       -34.4320  -69.4160   -9.5830 O         1 <0>         0.0000
  26482 WAT       -34.4320  -69.4160   -9.3330 O         1 <0>         0.0000
  26483 WAT       -34.4320  -69.4160   -9.0830 O         1 <0>         0.0000
  26484 WAT       -34.4320  -69.4160   -8.8330 O         1 <0>         0.0000
  26485 WAT       -34.4320  -69.4160   -8.5830 O         1 <0>         0.0000
  26486 WAT       -34.4320  -69.4160   -8.3330 O         1 <0>         0.0000
  26487 WAT       -34.4320  -69.4160   -8.0830 O         1 <0>         0.0000
  26488 WAT       -34.4320  -69.4160   -7.8330 O         1 <0>         0.0000
  26489 WAT       -34.4320  -69.4160   -7.5830 O         1 <0>         0.0000
  26490 WAT       -34.4320  -69.4160   -7.3330 O         1 <0>         0.0000
  26491 WAT       -34.4320  -69.4160   -7.0830 O         1 <0>         0.0000
  26492 WAT       -34.4320  -69.4160   -6.8330 O         1 <0>         0.0000
  26493 WAT       -34.4320  -69.4160   -6.5830 O         1 <0>         0.0000
  26494 WAT       -34.4320  -69.4160   -6.3330 O         1 <0>         0.0000
  26495 WAT       -34.4320  -69.4160   -6.0830 O         1 <0>         0.0000
  26496 WAT       -34.4320  -69.4160   -5.8330 O         1 <0>         0.0000
  26497 WAT       -34.4320  -69.4160   -5.5830 O         1 <0>         0.0000
  26498 WAT       -34.4320  -69.4160   -5.3330 O         1 <0>         0.0000
  26499 WAT       -34.4320  -69.4160   -5.0830 O         1 <0>         0.0000
  26500 WAT       -34.4320  -69.4160   -4.8330 O         1 <0>         0.0000
  26501 WAT       -34.4320  -69.4160   -4.5830 O         1 <0>         0.0000
  26502 WAT       -34.4320  -69.4160   -4.3330 O         1 <0>         0.0000
  26503 WAT       -34.4320  -69.4160   -4.0830 O         1 <0>         0.0000
  26504 WAT       -34.4320  -69.4160   -3.8330 O         1 <0>         0.0000
  26505 WAT       -34.4320  -69.4160   -3.5830 O         1 <0>         0.0000
  26506 WAT       -34.4320  -69.4160   -3.3330 O         1 <0>         0.0000
  26507 WAT       -34.4320  -69.4160   -3.0830 O         1 <0>         0.0000
  26508 WAT       -34.4320  -69.4160   -2.8330 O         1 <0>         0.0000
  26509 WAT       -34.4320  -69.4160   -2.5830 O         1 <0>         0.0000
  26510 WAT       -34.4320  -69.4160   -2.3330 O         1 <0>         0.0000
  26511 WAT       -34.4320  -69.4160   -2.0830 O         1 <0>         0.0000
  26512 WAT       -34.4320  -69.4160   -1.8330 O         1 <0>         0.0000
  26513 WAT       -34.4320  -69.4160   -1.5830 O         1 <0>         0.0000
  26514 WAT       -34.4320  -69.4160   -1.3330 O         1 <0>         0.0000
  26515 WAT       -34.4320  -69.4160   -1.0830 O         1 <0>         0.0000
  26516 WAT       -34.4320  -69.4160   -0.8330 O         1 <0>         0.0000
  26517 WAT       -34.4320  -69.4160   -0.5830 O         1 <0>         0.0000
  26518 WAT       -34.4320  -69.4160   -0.3330 O         1 <0>         0.0000
  26519 WAT       -34.4320  -69.4160   -0.0830 O         1 <0>         0.0000
  26520 WAT       -34.4320  -69.1660   -9.8330 O         1 <0>         0.0000
  26521 WAT       -34.4320  -69.1660   -9.5830 O         1 <0>         0.0000
  26522 WAT       -34.4320  -69.1660   -9.3330 O         1 <0>         0.0000
  26523 WAT       -34.4320  -69.1660   -9.0830 O         1 <0>         0.0000
  26524 WAT       -34.4320  -69.1660   -8.8330 O         1 <0>         0.0000
  26525 WAT       -34.4320  -69.1660   -8.5830 O         1 <0>         0.0000
  26526 WAT       -34.4320  -69.1660   -8.3330 O         1 <0>         0.0000
  26527 WAT       -34.4320  -69.1660   -8.0830 O         1 <0>         0.0000
  26528 WAT       -34.4320  -69.1660   -7.8330 O         1 <0>         0.0000
  26529 WAT       -34.4320  -69.1660   -7.5830 O         1 <0>         0.0000
  26530 WAT       -34.4320  -69.1660   -7.3330 O         1 <0>         0.0000
  26531 WAT       -34.4320  -69.1660   -7.0830 O         1 <0>         0.0000
  26532 WAT       -34.4320  -69.1660   -6.8330 O         1 <0>         0.0000
  26533 WAT       -34.4320  -69.1660   -6.5830 O         1 <0>         0.0000
  26534 WAT       -34.4320  -69.1660   -6.3330 O         1 <0>         0.0000
  26535 WAT       -34.4320  -69.1660   -6.0830 O         1 <0>         0.0000
  26536 WAT       -34.4320  -69.1660   -5.8330 O         1 <0>         0.0000
  26537 WAT       -34.4320  -69.1660   -5.5830 O         1 <0>         0.0000
  26538 WAT       -34.4320  -69.1660   -5.3330 O         1 <0>         0.0000
  26539 WAT       -34.4320  -69.1660   -5.0830 O         1 <0>         0.0000
  26540 WAT       -34.4320  -69.1660   -4.8330 O         1 <0>         0.0000
  26541 WAT       -34.4320  -69.1660   -4.5830 O         1 <0>         0.0000
  26542 WAT       -34.4320  -69.1660   -4.3330 O         1 <0>         0.0000
  26543 WAT       -34.4320  -69.1660   -4.0830 O         1 <0>         0.0000
  26544 WAT       -34.4320  -69.1660   -3.8330 O         1 <0>         0.0000
  26545 WAT       -34.4320  -69.1660   -3.5830 O         1 <0>         0.0000
  26546 WAT       -34.4320  -69.1660   -3.3330 O         1 <0>         0.0000
  26547 WAT       -34.4320  -69.1660   -3.0830 O         1 <0>         0.0000
  26548 WAT       -34.4320  -69.1660   -2.8330 O         1 <0>         0.0000
  26549 WAT       -34.4320  -69.1660   -2.5830 O         1 <0>         0.0000
  26550 WAT       -34.4320  -69.1660   -2.3330 O         1 <0>         0.0000
  26551 WAT       -34.4320  -69.1660   -2.0830 O         1 <0>         0.0000
  26552 WAT       -34.4320  -69.1660   -1.8330 O         1 <0>         0.0000
  26553 WAT       -34.4320  -69.1660   -1.5830 O         1 <0>         0.0000
  26554 WAT       -34.4320  -69.1660   -1.3330 O         1 <0>         0.0000
  26555 WAT       -34.4320  -69.1660   -1.0830 O         1 <0>         0.0000
  26556 WAT       -34.4320  -69.1660   -0.8330 O         1 <0>         0.0000
  26557 WAT       -34.4320  -69.1660   -0.5830 O         1 <0>         0.0000
  26558 WAT       -34.4320  -69.1660   -0.3330 O         1 <0>         0.0000
  26559 WAT       -34.4320  -69.1660   -0.0830 O         1 <0>         0.0000
  26560 WAT       -34.4320  -68.9160   -9.8330 O         1 <0>         0.0000
  26561 WAT       -34.4320  -68.9160   -9.5830 O         1 <0>         0.0000
  26562 WAT       -34.4320  -68.9160   -9.3330 O         1 <0>         0.0000
  26563 WAT       -34.4320  -68.9160   -9.0830 O         1 <0>         0.0000
  26564 WAT       -34.4320  -68.9160   -8.8330 O         1 <0>         0.0000
  26565 WAT       -34.4320  -68.9160   -8.5830 O         1 <0>         0.0000
  26566 WAT       -34.4320  -68.9160   -8.3330 O         1 <0>         0.0000
  26567 WAT       -34.4320  -68.9160   -8.0830 O         1 <0>         0.0000
  26568 WAT       -34.4320  -68.9160   -7.8330 O         1 <0>         0.0000
  26569 WAT       -34.4320  -68.9160   -7.5830 O         1 <0>         0.0000
  26570 WAT       -34.4320  -68.9160   -7.3330 O         1 <0>         0.0000
  26571 WAT       -34.4320  -68.9160   -7.0830 O         1 <0>         0.0000
  26572 WAT       -34.4320  -68.9160   -6.8330 O         1 <0>         0.0000
  26573 WAT       -34.4320  -68.9160   -6.5830 O         1 <0>         0.0000
  26574 WAT       -34.4320  -68.9160   -6.3330 O         1 <0>         0.0000
  26575 WAT       -34.4320  -68.9160   -6.0830 O         1 <0>         0.0000
  26576 WAT       -34.4320  -68.9160   -5.8330 O         1 <0>         0.0000
  26577 WAT       -34.4320  -68.9160   -5.5830 O         1 <0>         0.0000
  26578 WAT       -34.4320  -68.9160   -5.3330 O         1 <0>         0.0000
  26579 WAT       -34.4320  -68.9160   -5.0830 O         1 <0>         0.0000
  26580 WAT       -34.4320  -68.9160   -4.8330 O         1 <0>         0.0000
  26581 WAT       -34.4320  -68.9160   -4.5830 O         1 <0>         0.0000
  26582 WAT       -34.4320  -68.9160   -4.3330 O         1 <0>         0.0000
  26583 WAT       -34.4320  -68.9160   -4.0830 O         1 <0>         0.0000
  26584 WAT       -34.4320  -68.9160   -3.8330 O         1 <0>         0.0000
  26585 WAT       -34.4320  -68.9160   -3.5830 O         1 <0>         0.0000
  26586 WAT       -34.4320  -68.9160   -3.3330 O         1 <0>         0.0000
  26587 WAT       -34.4320  -68.9160   -3.0830 O         1 <0>         0.0000
  26588 WAT       -34.4320  -68.9160   -2.8330 O         1 <0>         0.0000
  26589 WAT       -34.4320  -68.9160   -2.5830 O         1 <0>         0.0000
  26590 WAT       -34.4320  -68.9160   -2.3330 O         1 <0>         0.0000
  26591 WAT       -34.4320  -68.9160   -2.0830 O         1 <0>         0.0000
  26592 WAT       -34.4320  -68.9160   -1.8330 O         1 <0>         0.0000
  26593 WAT       -34.4320  -68.9160   -1.5830 O         1 <0>         0.0000
  26594 WAT       -34.4320  -68.9160   -1.3330 O         1 <0>         0.0000
  26595 WAT       -34.4320  -68.9160   -1.0830 O         1 <0>         0.0000
  26596 WAT       -34.4320  -68.9160   -0.8330 O         1 <0>         0.0000
  26597 WAT       -34.4320  -68.9160   -0.5830 O         1 <0>         0.0000
  26598 WAT       -34.4320  -68.9160   -0.3330 O         1 <0>         0.0000
  26599 WAT       -34.4320  -68.9160   -0.0830 O         1 <0>         0.0000
  26600 WAT       -34.1820  -77.4160   -9.8330 O         1 <0>         0.0000
  26601 WAT       -34.1820  -77.4160   -9.5830 O         1 <0>         0.0000
  26602 WAT       -34.1820  -77.4160   -9.3330 O         1 <0>         0.0000
  26603 WAT       -34.1820  -77.4160   -9.0830 O         1 <0>         0.0000
  26604 WAT       -34.1820  -77.4160   -8.8330 O         1 <0>         0.0000
  26605 WAT       -34.1820  -77.4160   -8.5830 O         1 <0>         0.0000
  26606 WAT       -34.1820  -77.4160   -8.3330 O         1 <0>         0.0000
  26607 WAT       -34.1820  -77.4160   -8.0830 O         1 <0>         0.0000
  26608 WAT       -34.1820  -77.4160   -7.8330 O         1 <0>         0.0000
  26609 WAT       -34.1820  -77.4160   -7.5830 O         1 <0>         0.0000
  26610 WAT       -34.1820  -77.4160   -7.3330 O         1 <0>         0.0000
  26611 WAT       -34.1820  -77.4160   -7.0830 O         1 <0>         0.0000
  26612 WAT       -34.1820  -77.4160   -6.8330 O         1 <0>         0.0000
  26613 WAT       -34.1820  -77.4160   -6.5830 O         1 <0>         0.0000
  26614 WAT       -34.1820  -77.4160   -6.3330 O         1 <0>         0.0000
  26615 WAT       -34.1820  -77.4160   -6.0830 O         1 <0>         0.0000
  26616 WAT       -34.1820  -77.4160   -5.8330 O         1 <0>         0.0000
  26617 WAT       -34.1820  -77.4160   -5.5830 O         1 <0>         0.0000
  26618 WAT       -34.1820  -77.4160   -5.3330 O         1 <0>         0.0000
  26619 WAT       -34.1820  -77.4160   -5.0830 O         1 <0>         0.0000
  26620 WAT       -34.1820  -77.4160   -4.8330 O         1 <0>         0.0000
  26621 WAT       -34.1820  -77.4160   -4.5830 O         1 <0>         0.0000
  26622 WAT       -34.1820  -77.4160   -4.3330 O         1 <0>         0.0000
  26623 WAT       -34.1820  -77.4160   -4.0830 O         1 <0>         0.0000
  26624 WAT       -34.1820  -77.4160   -3.8330 O         1 <0>         0.0000
  26625 WAT       -34.1820  -77.4160   -3.5830 O         1 <0>         0.0000
  26626 WAT       -34.1820  -77.4160   -3.3330 O         1 <0>         0.0000
  26627 WAT       -34.1820  -77.4160   -3.0830 O         1 <0>         0.0000
  26628 WAT       -34.1820  -77.4160   -2.8330 O         1 <0>         0.0000
  26629 WAT       -34.1820  -77.4160   -2.5830 O         1 <0>         0.0000
  26630 WAT       -34.1820  -77.4160   -2.3330 O         1 <0>         0.0000
  26631 WAT       -34.1820  -77.4160   -2.0830 O         1 <0>         0.0000
  26632 WAT       -34.1820  -77.4160   -1.8330 O         1 <0>         0.0000
  26633 WAT       -34.1820  -77.4160   -1.5830 O         1 <0>         0.0000
  26634 WAT       -34.1820  -77.4160   -1.3330 O         1 <0>         0.0000
  26635 WAT       -34.1820  -77.4160   -1.0830 O         1 <0>         0.0000
  26636 WAT       -34.1820  -77.4160   -0.8330 O         1 <0>         0.0000
  26637 WAT       -34.1820  -77.4160   -0.5830 O         1 <0>         0.0000
  26638 WAT       -34.1820  -77.4160   -0.3330 O         1 <0>         0.0000
  26639 WAT       -34.1820  -77.4160   -0.0830 O         1 <0>         0.0000
  26640 WAT       -34.1820  -77.1660   -9.8330 O         1 <0>         0.0000
  26641 WAT       -34.1820  -77.1660   -9.5830 O         1 <0>         0.0000
  26642 WAT       -34.1820  -77.1660   -9.3330 O         1 <0>         0.0000
  26643 WAT       -34.1820  -77.1660   -9.0830 O         1 <0>         0.0000
  26644 WAT       -34.1820  -77.1660   -8.8330 O         1 <0>         0.0000
  26645 WAT       -34.1820  -77.1660   -8.5830 O         1 <0>         0.0000
  26646 WAT       -34.1820  -77.1660   -8.3330 O         1 <0>         0.0000
  26647 WAT       -34.1820  -77.1660   -8.0830 O         1 <0>         0.0000
  26648 WAT       -34.1820  -77.1660   -7.8330 O         1 <0>         0.0000
  26649 WAT       -34.1820  -77.1660   -7.5830 O         1 <0>         0.0000
  26650 WAT       -34.1820  -77.1660   -7.3330 O         1 <0>         0.0000
  26651 WAT       -34.1820  -77.1660   -7.0830 O         1 <0>         0.0000
  26652 WAT       -34.1820  -77.1660   -6.8330 O         1 <0>         0.0000
  26653 WAT       -34.1820  -77.1660   -6.5830 O         1 <0>         0.0000
  26654 WAT       -34.1820  -77.1660   -6.3330 O         1 <0>         0.0000
  26655 WAT       -34.1820  -77.1660   -6.0830 O         1 <0>         0.0000
  26656 WAT       -34.1820  -77.1660   -5.8330 O         1 <0>         0.0000
  26657 WAT       -34.1820  -77.1660   -5.5830 O         1 <0>         0.0000
  26658 WAT       -34.1820  -77.1660   -5.3330 O         1 <0>         0.0000
  26659 WAT       -34.1820  -77.1660   -5.0830 O         1 <0>         0.0000
  26660 WAT       -34.1820  -77.1660   -4.8330 O         1 <0>         0.0000
  26661 WAT       -34.1820  -77.1660   -4.5830 O         1 <0>         0.0000
  26662 WAT       -34.1820  -77.1660   -4.3330 O         1 <0>         0.0000
  26663 WAT       -34.1820  -77.1660   -4.0830 O         1 <0>         0.0000
  26664 WAT       -34.1820  -77.1660   -3.8330 O         1 <0>         0.0000
  26665 WAT       -34.1820  -77.1660   -3.5830 O         1 <0>         0.0000
  26666 WAT       -34.1820  -77.1660   -3.3330 O         1 <0>         0.0000
  26667 WAT       -34.1820  -77.1660   -3.0830 O         1 <0>         0.0000
  26668 WAT       -34.1820  -77.1660   -2.8330 O         1 <0>         0.0000
  26669 WAT       -34.1820  -77.1660   -2.5830 O         1 <0>         0.0000
  26670 WAT       -34.1820  -77.1660   -2.3330 O         1 <0>         0.0000
  26671 WAT       -34.1820  -77.1660   -2.0830 O         1 <0>         0.0000
  26672 WAT       -34.1820  -77.1660   -1.8330 O         1 <0>         0.0000
  26673 WAT       -34.1820  -77.1660   -1.5830 O         1 <0>         0.0000
  26674 WAT       -34.1820  -77.1660   -1.3330 O         1 <0>         0.0000
  26675 WAT       -34.1820  -77.1660   -1.0830 O         1 <0>         0.0000
  26676 WAT       -34.1820  -77.1660   -0.8330 O         1 <0>         0.0000
  26677 WAT       -34.1820  -77.1660   -0.5830 O         1 <0>         0.0000
  26678 WAT       -34.1820  -77.1660   -0.3330 O         1 <0>         0.0000
  26679 WAT       -34.1820  -77.1660   -0.0830 O         1 <0>         0.0000
  26680 WAT       -34.1820  -76.9160   -9.8330 O         1 <0>         0.0000
  26681 WAT       -34.1820  -76.9160   -9.5830 O         1 <0>         0.0000
  26682 WAT       -34.1820  -76.9160   -9.3330 O         1 <0>         0.0000
  26683 WAT       -34.1820  -76.9160   -9.0830 O         1 <0>         0.0000
  26684 WAT       -34.1820  -76.9160   -8.8330 O         1 <0>         0.0000
  26685 WAT       -34.1820  -76.9160   -8.5830 O         1 <0>         0.0000
  26686 WAT       -34.1820  -76.9160   -8.3330 O         1 <0>         0.0000
  26687 WAT       -34.1820  -76.9160   -8.0830 O         1 <0>         0.0000
  26688 WAT       -34.1820  -76.9160   -7.8330 O         1 <0>         0.0000
  26689 WAT       -34.1820  -76.9160   -7.5830 O         1 <0>         0.0000
  26690 WAT       -34.1820  -76.9160   -7.3330 O         1 <0>         0.0000
  26691 WAT       -34.1820  -76.9160   -7.0830 O         1 <0>         0.0000
  26692 WAT       -34.1820  -76.9160   -6.8330 O         1 <0>         0.0000
  26693 WAT       -34.1820  -76.9160   -6.5830 O         1 <0>         0.0000
  26694 WAT       -34.1820  -76.9160   -6.3330 O         1 <0>         0.0000
  26695 WAT       -34.1820  -76.9160   -6.0830 O         1 <0>         0.0000
  26696 WAT       -34.1820  -76.9160   -5.8330 O         1 <0>         0.0000
  26697 WAT       -34.1820  -76.9160   -5.5830 O         1 <0>         0.0000
  26698 WAT       -34.1820  -76.9160   -5.3330 O         1 <0>         0.0000
  26699 WAT       -34.1820  -76.9160   -5.0830 O         1 <0>         0.0000
  26700 WAT       -34.1820  -76.9160   -4.8330 O         1 <0>         0.0000
  26701 WAT       -34.1820  -76.9160   -4.5830 O         1 <0>         0.0000
  26702 WAT       -34.1820  -76.9160   -4.3330 O         1 <0>         0.0000
  26703 WAT       -34.1820  -76.9160   -4.0830 O         1 <0>         0.0000
  26704 WAT       -34.1820  -76.9160   -3.8330 O         1 <0>         0.0000
  26705 WAT       -34.1820  -76.9160   -3.5830 O         1 <0>         0.0000
  26706 WAT       -34.1820  -76.9160   -3.3330 O         1 <0>         0.0000
  26707 WAT       -34.1820  -76.9160   -3.0830 O         1 <0>         0.0000
  26708 WAT       -34.1820  -76.9160   -2.8330 O         1 <0>         0.0000
  26709 WAT       -34.1820  -76.9160   -2.5830 O         1 <0>         0.0000
  26710 WAT       -34.1820  -76.9160   -2.3330 O         1 <0>         0.0000
  26711 WAT       -34.1820  -76.9160   -2.0830 O         1 <0>         0.0000
  26712 WAT       -34.1820  -76.9160   -1.8330 O         1 <0>         0.0000
  26713 WAT       -34.1820  -76.9160   -1.5830 O         1 <0>         0.0000
  26714 WAT       -34.1820  -76.9160   -1.3330 O         1 <0>         0.0000
  26715 WAT       -34.1820  -76.9160   -1.0830 O         1 <0>         0.0000
  26716 WAT       -34.1820  -76.9160   -0.8330 O         1 <0>         0.0000
  26717 WAT       -34.1820  -76.9160   -0.5830 O         1 <0>         0.0000
  26718 WAT       -34.1820  -76.9160   -0.3330 O         1 <0>         0.0000
  26719 WAT       -34.1820  -76.9160   -0.0830 O         1 <0>         0.0000
  26720 WAT       -34.1820  -76.6660   -9.8330 O         1 <0>         0.0000
  26721 WAT       -34.1820  -76.6660   -9.5830 O         1 <0>         0.0000
  26722 WAT       -34.1820  -76.6660   -9.3330 O         1 <0>         0.0000
  26723 WAT       -34.1820  -76.6660   -9.0830 O         1 <0>         0.0000
  26724 WAT       -34.1820  -76.6660   -8.8330 O         1 <0>         0.0000
  26725 WAT       -34.1820  -76.6660   -8.5830 O         1 <0>         0.0000
  26726 WAT       -34.1820  -76.6660   -8.3330 O         1 <0>         0.0000
  26727 WAT       -34.1820  -76.6660   -8.0830 O         1 <0>         0.0000
  26728 WAT       -34.1820  -76.6660   -7.8330 O         1 <0>         0.0000
  26729 WAT       -34.1820  -76.6660   -7.5830 O         1 <0>         0.0000
  26730 WAT       -34.1820  -76.6660   -7.3330 O         1 <0>         0.0000
  26731 WAT       -34.1820  -76.6660   -7.0830 O         1 <0>         0.0000
  26732 WAT       -34.1820  -76.6660   -6.8330 O         1 <0>         0.0000
  26733 WAT       -34.1820  -76.6660   -6.5830 O         1 <0>         0.0000
  26734 WAT       -34.1820  -76.6660   -6.3330 O         1 <0>         0.0000
  26735 WAT       -34.1820  -76.6660   -6.0830 O         1 <0>         0.0000
  26736 WAT       -34.1820  -76.6660   -5.8330 O         1 <0>         0.0000
  26737 WAT       -34.1820  -76.6660   -5.5830 O         1 <0>         0.0000
  26738 WAT       -34.1820  -76.6660   -5.3330 O         1 <0>         0.0000
  26739 WAT       -34.1820  -76.6660   -5.0830 O         1 <0>         0.0000
  26740 WAT       -34.1820  -76.6660   -4.8330 O         1 <0>         0.0000
  26741 WAT       -34.1820  -76.6660   -4.5830 O         1 <0>         0.0000
  26742 WAT       -34.1820  -76.6660   -4.3330 O         1 <0>         0.0000
  26743 WAT       -34.1820  -76.6660   -4.0830 O         1 <0>         0.0000
  26744 WAT       -34.1820  -76.6660   -3.8330 O         1 <0>         0.0000
  26745 WAT       -34.1820  -76.6660   -3.5830 O         1 <0>         0.0000
  26746 WAT       -34.1820  -76.6660   -3.3330 O         1 <0>         0.0000
  26747 WAT       -34.1820  -76.6660   -3.0830 O         1 <0>         0.0000
  26748 WAT       -34.1820  -76.6660   -2.8330 O         1 <0>         0.0000
  26749 WAT       -34.1820  -76.6660   -2.5830 O         1 <0>         0.0000
  26750 WAT       -34.1820  -76.6660   -2.3330 O         1 <0>         0.0000
  26751 WAT       -34.1820  -76.6660   -2.0830 O         1 <0>         0.0000
  26752 WAT       -34.1820  -76.6660   -1.8330 O         1 <0>         0.0000
  26753 WAT       -34.1820  -76.6660   -1.5830 O         1 <0>         0.0000
  26754 WAT       -34.1820  -76.6660   -1.3330 O         1 <0>         0.0000
  26755 WAT       -34.1820  -76.6660   -1.0830 O         1 <0>         0.0000
  26756 WAT       -34.1820  -76.6660   -0.8330 O         1 <0>         0.0000
  26757 WAT       -34.1820  -76.6660   -0.5830 O         1 <0>         0.0000
  26758 WAT       -34.1820  -76.6660   -0.3330 O         1 <0>         0.0000
  26759 WAT       -34.1820  -76.6660   -0.0830 O         1 <0>         0.0000
  26760 WAT       -34.1820  -76.4160   -9.8330 O         1 <0>         0.0000
  26761 WAT       -34.1820  -76.4160   -9.5830 O         1 <0>         0.0000
  26762 WAT       -34.1820  -76.4160   -9.3330 O         1 <0>         0.0000
  26763 WAT       -34.1820  -76.4160   -9.0830 O         1 <0>         0.0000
  26764 WAT       -34.1820  -76.4160   -8.8330 O         1 <0>         0.0000
  26765 WAT       -34.1820  -76.4160   -8.5830 O         1 <0>         0.0000
  26766 WAT       -34.1820  -76.4160   -8.3330 O         1 <0>         0.0000
  26767 WAT       -34.1820  -76.4160   -8.0830 O         1 <0>         0.0000
  26768 WAT       -34.1820  -76.4160   -7.8330 O         1 <0>         0.0000
  26769 WAT       -34.1820  -76.4160   -7.5830 O         1 <0>         0.0000
  26770 WAT       -34.1820  -76.4160   -7.3330 O         1 <0>         0.0000
  26771 WAT       -34.1820  -76.4160   -7.0830 O         1 <0>         0.0000
  26772 WAT       -34.1820  -76.4160   -6.8330 O         1 <0>         0.0000
  26773 WAT       -34.1820  -76.4160   -6.5830 O         1 <0>         0.0000
  26774 WAT       -34.1820  -76.4160   -6.3330 O         1 <0>         0.0000
  26775 WAT       -34.1820  -76.4160   -6.0830 O         1 <0>         0.0000
  26776 WAT       -34.1820  -76.4160   -5.8330 O         1 <0>         0.0000
  26777 WAT       -34.1820  -76.4160   -5.5830 O         1 <0>         0.0000
  26778 WAT       -34.1820  -76.4160   -5.3330 O         1 <0>         0.0000
  26779 WAT       -34.1820  -76.4160   -5.0830 O         1 <0>         0.0000
  26780 WAT       -34.1820  -76.4160   -4.8330 O         1 <0>         0.0000
  26781 WAT       -34.1820  -76.4160   -4.5830 O         1 <0>         0.0000
  26782 WAT       -34.1820  -76.4160   -4.3330 O         1 <0>         0.0000
  26783 WAT       -34.1820  -76.4160   -4.0830 O         1 <0>         0.0000
  26784 WAT       -34.1820  -76.4160   -3.8330 O         1 <0>         0.0001
  26785 WAT       -34.1820  -76.4160   -3.5830 O         1 <0>         0.0002
  26786 WAT       -34.1820  -76.4160   -3.3330 O         1 <0>         0.0004
  26787 WAT       -34.1820  -76.4160   -3.0830 O         1 <0>         0.0005
  26788 WAT       -34.1820  -76.4160   -2.8330 O         1 <0>         0.0004
  26789 WAT       -34.1820  -76.4160   -2.5830 O         1 <0>         0.0001
  26790 WAT       -34.1820  -76.4160   -2.3330 O         1 <0>         0.0000
  26791 WAT       -34.1820  -76.4160   -2.0830 O         1 <0>         0.0000
  26792 WAT       -34.1820  -76.4160   -1.8330 O         1 <0>         0.0000
  26793 WAT       -34.1820  -76.4160   -1.5830 O         1 <0>         0.0000
  26794 WAT       -34.1820  -76.4160   -1.3330 O         1 <0>         0.0000
  26795 WAT       -34.1820  -76.4160   -1.0830 O         1 <0>         0.0000
  26796 WAT       -34.1820  -76.4160   -0.8330 O         1 <0>         0.0000
  26797 WAT       -34.1820  -76.4160   -0.5830 O         1 <0>         0.0000
  26798 WAT       -34.1820  -76.4160   -0.3330 O         1 <0>         0.0000
  26799 WAT       -34.1820  -76.4160   -0.0830 O         1 <0>         0.0000
  26800 WAT       -34.1820  -76.1660   -9.8330 O         1 <0>         0.0000
  26801 WAT       -34.1820  -76.1660   -9.5830 O         1 <0>         0.0000
  26802 WAT       -34.1820  -76.1660   -9.3330 O         1 <0>         0.0000
  26803 WAT       -34.1820  -76.1660   -9.0830 O         1 <0>         0.0000
  26804 WAT       -34.1820  -76.1660   -8.8330 O         1 <0>         0.0000
  26805 WAT       -34.1820  -76.1660   -8.5830 O         1 <0>         0.0000
  26806 WAT       -34.1820  -76.1660   -8.3330 O         1 <0>         0.0000
  26807 WAT       -34.1820  -76.1660   -8.0830 O         1 <0>         0.0000
  26808 WAT       -34.1820  -76.1660   -7.8330 O         1 <0>         0.0000
  26809 WAT       -34.1820  -76.1660   -7.5830 O         1 <0>         0.0000
  26810 WAT       -34.1820  -76.1660   -7.3330 O         1 <0>         0.0000
  26811 WAT       -34.1820  -76.1660   -7.0830 O         1 <0>         0.0000
  26812 WAT       -34.1820  -76.1660   -6.8330 O         1 <0>         0.0000
  26813 WAT       -34.1820  -76.1660   -6.5830 O         1 <0>         0.0000
  26814 WAT       -34.1820  -76.1660   -6.3330 O         1 <0>         0.0000
  26815 WAT       -34.1820  -76.1660   -6.0830 O         1 <0>         0.0000
  26816 WAT       -34.1820  -76.1660   -5.8330 O         1 <0>         0.0000
  26817 WAT       -34.1820  -76.1660   -5.5830 O         1 <0>         0.0000
  26818 WAT       -34.1820  -76.1660   -5.3330 O         1 <0>         0.0000
  26819 WAT       -34.1820  -76.1660   -5.0830 O         1 <0>         0.0000
  26820 WAT       -34.1820  -76.1660   -4.8330 O         1 <0>         0.0000
  26821 WAT       -34.1820  -76.1660   -4.5830 O         1 <0>         0.0000
  26822 WAT       -34.1820  -76.1660   -4.3330 O         1 <0>         0.0000
  26823 WAT       -34.1820  -76.1660   -4.0830 O         1 <0>         0.0002
  26824 WAT       -34.1820  -76.1660   -3.8330 O         1 <0>         0.0007
  26825 WAT       -34.1820  -76.1660   -3.5830 O         1 <0>         0.0020
  26826 WAT       -34.1820  -76.1660   -3.3330 O         1 <0>         0.0032
  26827 WAT       -34.1820  -76.1660   -3.0830 O         1 <0>         0.0034
  26828 WAT       -34.1820  -76.1660   -2.8330 O         1 <0>         0.0024
  26829 WAT       -34.1820  -76.1660   -2.5830 O         1 <0>         0.0011
  26830 WAT       -34.1820  -76.1660   -2.3330 O         1 <0>         0.0003
  26831 WAT       -34.1820  -76.1660   -2.0830 O         1 <0>         0.0000
  26832 WAT       -34.1820  -76.1660   -1.8330 O         1 <0>         0.0000
  26833 WAT       -34.1820  -76.1660   -1.5830 O         1 <0>         0.0000
  26834 WAT       -34.1820  -76.1660   -1.3330 O         1 <0>         0.0000
  26835 WAT       -34.1820  -76.1660   -1.0830 O         1 <0>         0.0000
  26836 WAT       -34.1820  -76.1660   -0.8330 O         1 <0>         0.0000
  26837 WAT       -34.1820  -76.1660   -0.5830 O         1 <0>         0.0000
  26838 WAT       -34.1820  -76.1660   -0.3330 O         1 <0>         0.0000
  26839 WAT       -34.1820  -76.1660   -0.0830 O         1 <0>         0.0000
  26840 WAT       -34.1820  -75.9160   -9.8330 O         1 <0>         0.0000
  26841 WAT       -34.1820  -75.9160   -9.5830 O         1 <0>         0.0000
  26842 WAT       -34.1820  -75.9160   -9.3330 O         1 <0>         0.0000
  26843 WAT       -34.1820  -75.9160   -9.0830 O         1 <0>         0.0000
  26844 WAT       -34.1820  -75.9160   -8.8330 O         1 <0>         0.0000
  26845 WAT       -34.1820  -75.9160   -8.5830 O         1 <0>         0.0000
  26846 WAT       -34.1820  -75.9160   -8.3330 O         1 <0>         0.0000
  26847 WAT       -34.1820  -75.9160   -8.0830 O         1 <0>         0.0000
  26848 WAT       -34.1820  -75.9160   -7.8330 O         1 <0>         0.0000
  26849 WAT       -34.1820  -75.9160   -7.5830 O         1 <0>         0.0000
  26850 WAT       -34.1820  -75.9160   -7.3330 O         1 <0>         0.0000
  26851 WAT       -34.1820  -75.9160   -7.0830 O         1 <0>         0.0000
  26852 WAT       -34.1820  -75.9160   -6.8330 O         1 <0>         0.0000
  26853 WAT       -34.1820  -75.9160   -6.5830 O         1 <0>         0.0000
  26854 WAT       -34.1820  -75.9160   -6.3330 O         1 <0>         0.0000
  26855 WAT       -34.1820  -75.9160   -6.0830 O         1 <0>         0.0000
  26856 WAT       -34.1820  -75.9160   -5.8330 O         1 <0>         0.0000
  26857 WAT       -34.1820  -75.9160   -5.5830 O         1 <0>         0.0000
  26858 WAT       -34.1820  -75.9160   -5.3330 O         1 <0>         0.0000
  26859 WAT       -34.1820  -75.9160   -5.0830 O         1 <0>         0.0000
  26860 WAT       -34.1820  -75.9160   -4.8330 O         1 <0>         0.0000
  26861 WAT       -34.1820  -75.9160   -4.5830 O         1 <0>         0.0000
  26862 WAT       -34.1820  -75.9160   -4.3330 O         1 <0>         0.0002
  26863 WAT       -34.1820  -75.9160   -4.0830 O         1 <0>         0.0012
  26864 WAT       -34.1820  -75.9160   -3.8330 O         1 <0>         0.0040
  26865 WAT       -34.1820  -75.9160   -3.5830 O         1 <0>         0.0087
  26866 WAT       -34.1820  -75.9160   -3.3330 O         1 <0>         0.0129
  26867 WAT       -34.1820  -75.9160   -3.0830 O         1 <0>         0.0133
  26868 WAT       -34.1820  -75.9160   -2.8330 O         1 <0>         0.0093
  26869 WAT       -34.1820  -75.9160   -2.5830 O         1 <0>         0.0043
  26870 WAT       -34.1820  -75.9160   -2.3330 O         1 <0>         0.0012
  26871 WAT       -34.1820  -75.9160   -2.0830 O         1 <0>         0.0002
  26872 WAT       -34.1820  -75.9160   -1.8330 O         1 <0>         0.0000
  26873 WAT       -34.1820  -75.9160   -1.5830 O         1 <0>         0.0000
  26874 WAT       -34.1820  -75.9160   -1.3330 O         1 <0>         0.0000
  26875 WAT       -34.1820  -75.9160   -1.0830 O         1 <0>         0.0000
  26876 WAT       -34.1820  -75.9160   -0.8330 O         1 <0>         0.0000
  26877 WAT       -34.1820  -75.9160   -0.5830 O         1 <0>         0.0000
  26878 WAT       -34.1820  -75.9160   -0.3330 O         1 <0>         0.0000
  26879 WAT       -34.1820  -75.9160   -0.0830 O         1 <0>         0.0000
  26880 WAT       -34.1820  -75.6660   -9.8330 O         1 <0>         0.0000
  26881 WAT       -34.1820  -75.6660   -9.5830 O         1 <0>         0.0000
  26882 WAT       -34.1820  -75.6660   -9.3330 O         1 <0>         0.0000
  26883 WAT       -34.1820  -75.6660   -9.0830 O         1 <0>         0.0000
  26884 WAT       -34.1820  -75.6660   -8.8330 O         1 <0>         0.0000
  26885 WAT       -34.1820  -75.6660   -8.5830 O         1 <0>         0.0000
  26886 WAT       -34.1820  -75.6660   -8.3330 O         1 <0>         0.0000
  26887 WAT       -34.1820  -75.6660   -8.0830 O         1 <0>         0.0000
  26888 WAT       -34.1820  -75.6660   -7.8330 O         1 <0>         0.0000
  26889 WAT       -34.1820  -75.6660   -7.5830 O         1 <0>         0.0000
  26890 WAT       -34.1820  -75.6660   -7.3330 O         1 <0>         0.0000
  26891 WAT       -34.1820  -75.6660   -7.0830 O         1 <0>         0.0000
  26892 WAT       -34.1820  -75.6660   -6.8330 O         1 <0>         0.0000
  26893 WAT       -34.1820  -75.6660   -6.5830 O         1 <0>         0.0000
  26894 WAT       -34.1820  -75.6660   -6.3330 O         1 <0>         0.0000
  26895 WAT       -34.1820  -75.6660   -6.0830 O         1 <0>         0.0000
  26896 WAT       -34.1820  -75.6660   -5.8330 O         1 <0>         0.0000
  26897 WAT       -34.1820  -75.6660   -5.5830 O         1 <0>         0.0000
  26898 WAT       -34.1820  -75.6660   -5.3330 O         1 <0>         0.0000
  26899 WAT       -34.1820  -75.6660   -5.0830 O         1 <0>         0.0000
  26900 WAT       -34.1820  -75.6660   -4.8330 O         1 <0>         0.0000
  26901 WAT       -34.1820  -75.6660   -4.5830 O         1 <0>         0.0002
  26902 WAT       -34.1820  -75.6660   -4.3330 O         1 <0>         0.0012
  26903 WAT       -34.1820  -75.6660   -4.0830 O         1 <0>         0.0045
  26904 WAT       -34.1820  -75.6660   -3.8330 O         1 <0>         0.0124
  26905 WAT       -34.1820  -75.6660   -3.5830 O         1 <0>         0.0243
  26906 WAT       -34.1820  -75.6660   -3.3330 O         1 <0>         0.0343
  26907 WAT       -34.1820  -75.6660   -3.0830 O         1 <0>         0.0343
  26908 WAT       -34.1820  -75.6660   -2.8330 O         1 <0>         0.0238
  26909 WAT       -34.1820  -75.6660   -2.5830 O         1 <0>         0.0112
  26910 WAT       -34.1820  -75.6660   -2.3330 O         1 <0>         0.0034
  26911 WAT       -34.1820  -75.6660   -2.0830 O         1 <0>         0.0006
  26912 WAT       -34.1820  -75.6660   -1.8330 O         1 <0>         0.0000
  26913 WAT       -34.1820  -75.6660   -1.5830 O         1 <0>         0.0000
  26914 WAT       -34.1820  -75.6660   -1.3330 O         1 <0>         0.0000
  26915 WAT       -34.1820  -75.6660   -1.0830 O         1 <0>         0.0000
  26916 WAT       -34.1820  -75.6660   -0.8330 O         1 <0>         0.0000
  26917 WAT       -34.1820  -75.6660   -0.5830 O         1 <0>         0.0000
  26918 WAT       -34.1820  -75.6660   -0.3330 O         1 <0>         0.0000
  26919 WAT       -34.1820  -75.6660   -0.0830 O         1 <0>         0.0000
  26920 WAT       -34.1820  -75.4160   -9.8330 O         1 <0>         0.0000
  26921 WAT       -34.1820  -75.4160   -9.5830 O         1 <0>         0.0000
  26922 WAT       -34.1820  -75.4160   -9.3330 O         1 <0>         0.0000
  26923 WAT       -34.1820  -75.4160   -9.0830 O         1 <0>         0.0000
  26924 WAT       -34.1820  -75.4160   -8.8330 O         1 <0>         0.0000
  26925 WAT       -34.1820  -75.4160   -8.5830 O         1 <0>         0.0000
  26926 WAT       -34.1820  -75.4160   -8.3330 O         1 <0>         0.0000
  26927 WAT       -34.1820  -75.4160   -8.0830 O         1 <0>         0.0000
  26928 WAT       -34.1820  -75.4160   -7.8330 O         1 <0>         0.0000
  26929 WAT       -34.1820  -75.4160   -7.5830 O         1 <0>         0.0000
  26930 WAT       -34.1820  -75.4160   -7.3330 O         1 <0>         0.0000
  26931 WAT       -34.1820  -75.4160   -7.0830 O         1 <0>         0.0000
  26932 WAT       -34.1820  -75.4160   -6.8330 O         1 <0>         0.0000
  26933 WAT       -34.1820  -75.4160   -6.5830 O         1 <0>         0.0000
  26934 WAT       -34.1820  -75.4160   -6.3330 O         1 <0>         0.0000
  26935 WAT       -34.1820  -75.4160   -6.0830 O         1 <0>         0.0000
  26936 WAT       -34.1820  -75.4160   -5.8330 O         1 <0>         0.0000
  26937 WAT       -34.1820  -75.4160   -5.5830 O         1 <0>         0.0000
  26938 WAT       -34.1820  -75.4160   -5.3330 O         1 <0>         0.0000
  26939 WAT       -34.1820  -75.4160   -5.0830 O         1 <0>         0.0000
  26940 WAT       -34.1820  -75.4160   -4.8330 O         1 <0>         0.0001
  26941 WAT       -34.1820  -75.4160   -4.5830 O         1 <0>         0.0007
  26942 WAT       -34.1820  -75.4160   -4.3330 O         1 <0>         0.0031
  26943 WAT       -34.1820  -75.4160   -4.0830 O         1 <0>         0.0103
  26944 WAT       -34.1820  -75.4160   -3.8330 O         1 <0>         0.0253
  26945 WAT       -34.1820  -75.4160   -3.5830 O         1 <0>         0.0462
  26946 WAT       -34.1820  -75.4160   -3.3330 O         1 <0>         0.0624
  26947 WAT       -34.1820  -75.4160   -3.0830 O         1 <0>         0.0612
  26948 WAT       -34.1820  -75.4160   -2.8330 O         1 <0>         0.0424
  26949 WAT       -34.1820  -75.4160   -2.5830 O         1 <0>         0.0203
  26950 WAT       -34.1820  -75.4160   -2.3330 O         1 <0>         0.0065
  26951 WAT       -34.1820  -75.4160   -2.0830 O         1 <0>         0.0012
  26952 WAT       -34.1820  -75.4160   -1.8330 O         1 <0>         0.0001
  26953 WAT       -34.1820  -75.4160   -1.5830 O         1 <0>         0.0000
  26954 WAT       -34.1820  -75.4160   -1.3330 O         1 <0>         0.0000
  26955 WAT       -34.1820  -75.4160   -1.0830 O         1 <0>         0.0000
  26956 WAT       -34.1820  -75.4160   -0.8330 O         1 <0>         0.0000
  26957 WAT       -34.1820  -75.4160   -0.5830 O         1 <0>         0.0000
  26958 WAT       -34.1820  -75.4160   -0.3330 O         1 <0>         0.0000
  26959 WAT       -34.1820  -75.4160   -0.0830 O         1 <0>         0.0000
  26960 WAT       -34.1820  -75.1660   -9.8330 O         1 <0>         0.0000
  26961 WAT       -34.1820  -75.1660   -9.5830 O         1 <0>         0.0000
  26962 WAT       -34.1820  -75.1660   -9.3330 O         1 <0>         0.0000
  26963 WAT       -34.1820  -75.1660   -9.0830 O         1 <0>         0.0000
  26964 WAT       -34.1820  -75.1660   -8.8330 O         1 <0>         0.0000
  26965 WAT       -34.1820  -75.1660   -8.5830 O         1 <0>         0.0000
  26966 WAT       -34.1820  -75.1660   -8.3330 O         1 <0>         0.0000
  26967 WAT       -34.1820  -75.1660   -8.0830 O         1 <0>         0.0000
  26968 WAT       -34.1820  -75.1660   -7.8330 O         1 <0>         0.0000
  26969 WAT       -34.1820  -75.1660   -7.5830 O         1 <0>         0.0000
  26970 WAT       -34.1820  -75.1660   -7.3330 O         1 <0>         0.0000
  26971 WAT       -34.1820  -75.1660   -7.0830 O         1 <0>         0.0000
  26972 WAT       -34.1820  -75.1660   -6.8330 O         1 <0>         0.0000
  26973 WAT       -34.1820  -75.1660   -6.5830 O         1 <0>         0.0000
  26974 WAT       -34.1820  -75.1660   -6.3330 O         1 <0>         0.0000
  26975 WAT       -34.1820  -75.1660   -6.0830 O         1 <0>         0.0001
  26976 WAT       -34.1820  -75.1660   -5.8330 O         1 <0>         0.0001
  26977 WAT       -34.1820  -75.1660   -5.5830 O         1 <0>         0.0001
  26978 WAT       -34.1820  -75.1660   -5.3330 O         1 <0>         0.0000
  26979 WAT       -34.1820  -75.1660   -5.0830 O         1 <0>         0.0001
  26980 WAT       -34.1820  -75.1660   -4.8330 O         1 <0>         0.0003
  26981 WAT       -34.1820  -75.1660   -4.5830 O         1 <0>         0.0014
  26982 WAT       -34.1820  -75.1660   -4.3330 O         1 <0>         0.0053
  26983 WAT       -34.1820  -75.1660   -4.0830 O         1 <0>         0.0155
  26984 WAT       -34.1820  -75.1660   -3.8330 O         1 <0>         0.0350
  26985 WAT       -34.1820  -75.1660   -3.5830 O         1 <0>         0.0606
  26986 WAT       -34.1820  -75.1660   -3.3330 O         1 <0>         0.0795
  26987 WAT       -34.1820  -75.1660   -3.0830 O         1 <0>         0.0772
  26988 WAT       -34.1820  -75.1660   -2.8330 O         1 <0>         0.0542
  26989 WAT       -34.1820  -75.1660   -2.5830 O         1 <0>         0.0269
  26990 WAT       -34.1820  -75.1660   -2.3330 O         1 <0>         0.0092
  26991 WAT       -34.1820  -75.1660   -2.0830 O         1 <0>         0.0020
  26992 WAT       -34.1820  -75.1660   -1.8330 O         1 <0>         0.0002
  26993 WAT       -34.1820  -75.1660   -1.5830 O         1 <0>         0.0000
  26994 WAT       -34.1820  -75.1660   -1.3330 O         1 <0>         0.0000
  26995 WAT       -34.1820  -75.1660   -1.0830 O         1 <0>         0.0000
  26996 WAT       -34.1820  -75.1660   -0.8330 O         1 <0>         0.0000
  26997 WAT       -34.1820  -75.1660   -0.5830 O         1 <0>         0.0000
  26998 WAT       -34.1820  -75.1660   -0.3330 O         1 <0>         0.0000
  26999 WAT       -34.1820  -75.1660   -0.0830 O         1 <0>         0.0000
  27000 WAT       -34.1820  -74.9160   -9.8330 O         1 <0>         0.0000
  27001 WAT       -34.1820  -74.9160   -9.5830 O         1 <0>         0.0000
  27002 WAT       -34.1820  -74.9160   -9.3330 O         1 <0>         0.0000
  27003 WAT       -34.1820  -74.9160   -9.0830 O         1 <0>         0.0000
  27004 WAT       -34.1820  -74.9160   -8.8330 O         1 <0>         0.0000
  27005 WAT       -34.1820  -74.9160   -8.5830 O         1 <0>         0.0000
  27006 WAT       -34.1820  -74.9160   -8.3330 O         1 <0>         0.0000
  27007 WAT       -34.1820  -74.9160   -8.0830 O         1 <0>         0.0000
  27008 WAT       -34.1820  -74.9160   -7.8330 O         1 <0>         0.0000
  27009 WAT       -34.1820  -74.9160   -7.5830 O         1 <0>         0.0000
  27010 WAT       -34.1820  -74.9160   -7.3330 O         1 <0>         0.0000
  27011 WAT       -34.1820  -74.9160   -7.0830 O         1 <0>         0.0000
  27012 WAT       -34.1820  -74.9160   -6.8330 O         1 <0>         0.0000
  27013 WAT       -34.1820  -74.9160   -6.5830 O         1 <0>         0.0002
  27014 WAT       -34.1820  -74.9160   -6.3330 O         1 <0>         0.0004
  27015 WAT       -34.1820  -74.9160   -6.0830 O         1 <0>         0.0006
  27016 WAT       -34.1820  -74.9160   -5.8330 O         1 <0>         0.0006
  27017 WAT       -34.1820  -74.9160   -5.5830 O         1 <0>         0.0004
  27018 WAT       -34.1820  -74.9160   -5.3330 O         1 <0>         0.0003
  27019 WAT       -34.1820  -74.9160   -5.0830 O         1 <0>         0.0003
  27020 WAT       -34.1820  -74.9160   -4.8330 O         1 <0>         0.0007
  27021 WAT       -34.1820  -74.9160   -4.5830 O         1 <0>         0.0020
  27022 WAT       -34.1820  -74.9160   -4.3330 O         1 <0>         0.0060
  27023 WAT       -34.1820  -74.9160   -4.0830 O         1 <0>         0.0157
  27024 WAT       -34.1820  -74.9160   -3.8330 O         1 <0>         0.0333
  27025 WAT       -34.1820  -74.9160   -3.5830 O         1 <0>         0.0558
  27026 WAT       -34.1820  -74.9160   -3.3330 O         1 <0>         0.0725
  27027 WAT       -34.1820  -74.9160   -3.0830 O         1 <0>         0.0717
  27028 WAT       -34.1820  -74.9160   -2.8330 O         1 <0>         0.0530
  27029 WAT       -34.1820  -74.9160   -2.5830 O         1 <0>         0.0289
  27030 WAT       -34.1820  -74.9160   -2.3330 O         1 <0>         0.0115
  27031 WAT       -34.1820  -74.9160   -2.0830 O         1 <0>         0.0032
  27032 WAT       -34.1820  -74.9160   -1.8330 O         1 <0>         0.0005
  27033 WAT       -34.1820  -74.9160   -1.5830 O         1 <0>         0.0000
  27034 WAT       -34.1820  -74.9160   -1.3330 O         1 <0>         0.0000
  27035 WAT       -34.1820  -74.9160   -1.0830 O         1 <0>         0.0000
  27036 WAT       -34.1820  -74.9160   -0.8330 O         1 <0>         0.0000
  27037 WAT       -34.1820  -74.9160   -0.5830 O         1 <0>         0.0000
  27038 WAT       -34.1820  -74.9160   -0.3330 O         1 <0>         0.0000
  27039 WAT       -34.1820  -74.9160   -0.0830 O         1 <0>         0.0000
  27040 WAT       -34.1820  -74.6660   -9.8330 O         1 <0>         0.0000
  27041 WAT       -34.1820  -74.6660   -9.5830 O         1 <0>         0.0000
  27042 WAT       -34.1820  -74.6660   -9.3330 O         1 <0>         0.0000
  27043 WAT       -34.1820  -74.6660   -9.0830 O         1 <0>         0.0000
  27044 WAT       -34.1820  -74.6660   -8.8330 O         1 <0>         0.0000
  27045 WAT       -34.1820  -74.6660   -8.5830 O         1 <0>         0.0000
  27046 WAT       -34.1820  -74.6660   -8.3330 O         1 <0>         0.0000
  27047 WAT       -34.1820  -74.6660   -8.0830 O         1 <0>         0.0000
  27048 WAT       -34.1820  -74.6660   -7.8330 O         1 <0>         0.0000
  27049 WAT       -34.1820  -74.6660   -7.5830 O         1 <0>         0.0000
  27050 WAT       -34.1820  -74.6660   -7.3330 O         1 <0>         0.0000
  27051 WAT       -34.1820  -74.6660   -7.0830 O         1 <0>         0.0000
  27052 WAT       -34.1820  -74.6660   -6.8330 O         1 <0>         0.0002
  27053 WAT       -34.1820  -74.6660   -6.5830 O         1 <0>         0.0008
  27054 WAT       -34.1820  -74.6660   -6.3330 O         1 <0>         0.0017
  27055 WAT       -34.1820  -74.6660   -6.0830 O         1 <0>         0.0025
  27056 WAT       -34.1820  -74.6660   -5.8330 O         1 <0>         0.0025
  27057 WAT       -34.1820  -74.6660   -5.5830 O         1 <0>         0.0018
  27058 WAT       -34.1820  -74.6660   -5.3330 O         1 <0>         0.0012
  27059 WAT       -34.1820  -74.6660   -5.0830 O         1 <0>         0.0011
  27060 WAT       -34.1820  -74.6660   -4.8330 O         1 <0>         0.0013
  27061 WAT       -34.1820  -74.6660   -4.5830 O         1 <0>         0.0023
  27062 WAT       -34.1820  -74.6660   -4.3330 O         1 <0>         0.0049
  27063 WAT       -34.1820  -74.6660   -4.0830 O         1 <0>         0.0111
  27064 WAT       -34.1820  -74.6660   -3.8330 O         1 <0>         0.0225
  27065 WAT       -34.1820  -74.6660   -3.5830 O         1 <0>         0.0376
  27066 WAT       -34.1820  -74.6660   -3.3330 O         1 <0>         0.0503
  27067 WAT       -34.1820  -74.6660   -3.0830 O         1 <0>         0.0534
  27068 WAT       -34.1820  -74.6660   -2.8330 O         1 <0>         0.0446
  27069 WAT       -34.1820  -74.6660   -2.5830 O         1 <0>         0.0292
  27070 WAT       -34.1820  -74.6660   -2.3330 O         1 <0>         0.0148
  27071 WAT       -34.1820  -74.6660   -2.0830 O         1 <0>         0.0055
  27072 WAT       -34.1820  -74.6660   -1.8330 O         1 <0>         0.0014
  27073 WAT       -34.1820  -74.6660   -1.5830 O         1 <0>         0.0002
  27074 WAT       -34.1820  -74.6660   -1.3330 O         1 <0>         0.0000
  27075 WAT       -34.1820  -74.6660   -1.0830 O         1 <0>         0.0000
  27076 WAT       -34.1820  -74.6660   -0.8330 O         1 <0>         0.0000
  27077 WAT       -34.1820  -74.6660   -0.5830 O         1 <0>         0.0000
  27078 WAT       -34.1820  -74.6660   -0.3330 O         1 <0>         0.0000
  27079 WAT       -34.1820  -74.6660   -0.0830 O         1 <0>         0.0000
  27080 WAT       -34.1820  -74.4160   -9.8330 O         1 <0>         0.0000
  27081 WAT       -34.1820  -74.4160   -9.5830 O         1 <0>         0.0000
  27082 WAT       -34.1820  -74.4160   -9.3330 O         1 <0>         0.0000
  27083 WAT       -34.1820  -74.4160   -9.0830 O         1 <0>         0.0000
  27084 WAT       -34.1820  -74.4160   -8.8330 O         1 <0>         0.0000
  27085 WAT       -34.1820  -74.4160   -8.5830 O         1 <0>         0.0000
  27086 WAT       -34.1820  -74.4160   -8.3330 O         1 <0>         0.0000
  27087 WAT       -34.1820  -74.4160   -8.0830 O         1 <0>         0.0000
  27088 WAT       -34.1820  -74.4160   -7.8330 O         1 <0>         0.0000
  27089 WAT       -34.1820  -74.4160   -7.5830 O         1 <0>         0.0000
  27090 WAT       -34.1820  -74.4160   -7.3330 O         1 <0>         0.0000
  27091 WAT       -34.1820  -74.4160   -7.0830 O         1 <0>         0.0002
  27092 WAT       -34.1820  -74.4160   -6.8330 O         1 <0>         0.0007
  27093 WAT       -34.1820  -74.4160   -6.5830 O         1 <0>         0.0022
  27094 WAT       -34.1820  -74.4160   -6.3330 O         1 <0>         0.0044
  27095 WAT       -34.1820  -74.4160   -6.0830 O         1 <0>         0.0062
  27096 WAT       -34.1820  -74.4160   -5.8330 O         1 <0>         0.0062
  27097 WAT       -34.1820  -74.4160   -5.5830 O         1 <0>         0.0047
  27098 WAT       -34.1820  -74.4160   -5.3330 O         1 <0>         0.0033
  27099 WAT       -34.1820  -74.4160   -5.0830 O         1 <0>         0.0027
  27100 WAT       -34.1820  -74.4160   -4.8330 O         1 <0>         0.0025
  27101 WAT       -34.1820  -74.4160   -4.5830 O         1 <0>         0.0026
  27102 WAT       -34.1820  -74.4160   -4.3330 O         1 <0>         0.0034
  27103 WAT       -34.1820  -74.4160   -4.0830 O         1 <0>         0.0060
  27104 WAT       -34.1820  -74.4160   -3.8330 O         1 <0>         0.0116
  27105 WAT       -34.1820  -74.4160   -3.5830 O         1 <0>         0.0203
  27106 WAT       -34.1820  -74.4160   -3.3330 O         1 <0>         0.0297
  27107 WAT       -34.1820  -74.4160   -3.0830 O         1 <0>         0.0362
  27108 WAT       -34.1820  -74.4160   -2.8330 O         1 <0>         0.0369
  27109 WAT       -34.1820  -74.4160   -2.5830 O         1 <0>         0.0308
  27110 WAT       -34.1820  -74.4160   -2.3330 O         1 <0>         0.0201
  27111 WAT       -34.1820  -74.4160   -2.0830 O         1 <0>         0.0098
  27112 WAT       -34.1820  -74.4160   -1.8330 O         1 <0>         0.0033
  27113 WAT       -34.1820  -74.4160   -1.5830 O         1 <0>         0.0007
  27114 WAT       -34.1820  -74.4160   -1.3330 O         1 <0>         0.0001
  27115 WAT       -34.1820  -74.4160   -1.0830 O         1 <0>         0.0000
  27116 WAT       -34.1820  -74.4160   -0.8330 O         1 <0>         0.0000
  27117 WAT       -34.1820  -74.4160   -0.5830 O         1 <0>         0.0000
  27118 WAT       -34.1820  -74.4160   -0.3330 O         1 <0>         0.0000
  27119 WAT       -34.1820  -74.4160   -0.0830 O         1 <0>         0.0000
  27120 WAT       -34.1820  -74.1660   -9.8330 O         1 <0>         0.0000
  27121 WAT       -34.1820  -74.1660   -9.5830 O         1 <0>         0.0000
  27122 WAT       -34.1820  -74.1660   -9.3330 O         1 <0>         0.0000
  27123 WAT       -34.1820  -74.1660   -9.0830 O         1 <0>         0.0000
  27124 WAT       -34.1820  -74.1660   -8.8330 O         1 <0>         0.0000
  27125 WAT       -34.1820  -74.1660   -8.5830 O         1 <0>         0.0000
  27126 WAT       -34.1820  -74.1660   -8.3330 O         1 <0>         0.0000
  27127 WAT       -34.1820  -74.1660   -8.0830 O         1 <0>         0.0000
  27128 WAT       -34.1820  -74.1660   -7.8330 O         1 <0>         0.0000
  27129 WAT       -34.1820  -74.1660   -7.5830 O         1 <0>         0.0000
  27130 WAT       -34.1820  -74.1660   -7.3330 O         1 <0>         0.0000
  27131 WAT       -34.1820  -74.1660   -7.0830 O         1 <0>         0.0003
  27132 WAT       -34.1820  -74.1660   -6.8330 O         1 <0>         0.0013
  27133 WAT       -34.1820  -74.1660   -6.5830 O         1 <0>         0.0037
  27134 WAT       -34.1820  -74.1660   -6.3330 O         1 <0>         0.0073
  27135 WAT       -34.1820  -74.1660   -6.0830 O         1 <0>         0.0101
  27136 WAT       -34.1820  -74.1660   -5.8330 O         1 <0>         0.0102
  27137 WAT       -34.1820  -74.1660   -5.5830 O         1 <0>         0.0083
  27138 WAT       -34.1820  -74.1660   -5.3330 O         1 <0>         0.0065
  27139 WAT       -34.1820  -74.1660   -5.0830 O         1 <0>         0.0055
  27140 WAT       -34.1820  -74.1660   -4.8330 O         1 <0>         0.0046
  27141 WAT       -34.1820  -74.1660   -4.5830 O         1 <0>         0.0035
  27142 WAT       -34.1820  -74.1660   -4.3330 O         1 <0>         0.0027
  27143 WAT       -34.1820  -74.1660   -4.0830 O         1 <0>         0.0030
  27144 WAT       -34.1820  -74.1660   -3.8330 O         1 <0>         0.0052
  27145 WAT       -34.1820  -74.1660   -3.5830 O         1 <0>         0.0098
  27146 WAT       -34.1820  -74.1660   -3.3330 O         1 <0>         0.0167
  27147 WAT       -34.1820  -74.1660   -3.0830 O         1 <0>         0.0248
  27148 WAT       -34.1820  -74.1660   -2.8330 O         1 <0>         0.0315
  27149 WAT       -34.1820  -74.1660   -2.5830 O         1 <0>         0.0327
  27150 WAT       -34.1820  -74.1660   -2.3330 O         1 <0>         0.0262
  27151 WAT       -34.1820  -74.1660   -2.0830 O         1 <0>         0.0155
  27152 WAT       -34.1820  -74.1660   -1.8330 O         1 <0>         0.0064
  27153 WAT       -34.1820  -74.1660   -1.5830 O         1 <0>         0.0018
  27154 WAT       -34.1820  -74.1660   -1.3330 O         1 <0>         0.0003
  27155 WAT       -34.1820  -74.1660   -1.0830 O         1 <0>         0.0000
  27156 WAT       -34.1820  -74.1660   -0.8330 O         1 <0>         0.0000
  27157 WAT       -34.1820  -74.1660   -0.5830 O         1 <0>         0.0000
  27158 WAT       -34.1820  -74.1660   -0.3330 O         1 <0>         0.0000
  27159 WAT       -34.1820  -74.1660   -0.0830 O         1 <0>         0.0000
  27160 WAT       -34.1820  -73.9160   -9.8330 O         1 <0>         0.0000
  27161 WAT       -34.1820  -73.9160   -9.5830 O         1 <0>         0.0000
  27162 WAT       -34.1820  -73.9160   -9.3330 O         1 <0>         0.0000
  27163 WAT       -34.1820  -73.9160   -9.0830 O         1 <0>         0.0000
  27164 WAT       -34.1820  -73.9160   -8.8330 O         1 <0>         0.0000
  27165 WAT       -34.1820  -73.9160   -8.5830 O         1 <0>         0.0000
  27166 WAT       -34.1820  -73.9160   -8.3330 O         1 <0>         0.0000
  27167 WAT       -34.1820  -73.9160   -8.0830 O         1 <0>         0.0000
  27168 WAT       -34.1820  -73.9160   -7.8330 O         1 <0>         0.0000
  27169 WAT       -34.1820  -73.9160   -7.5830 O         1 <0>         0.0000
  27170 WAT       -34.1820  -73.9160   -7.3330 O         1 <0>         0.0001
  27171 WAT       -34.1820  -73.9160   -7.0830 O         1 <0>         0.0005
  27172 WAT       -34.1820  -73.9160   -6.8330 O         1 <0>         0.0017
  27173 WAT       -34.1820  -73.9160   -6.5830 O         1 <0>         0.0044
  27174 WAT       -34.1820  -73.9160   -6.3330 O         1 <0>         0.0082
  27175 WAT       -34.1820  -73.9160   -6.0830 O         1 <0>         0.0112
  27176 WAT       -34.1820  -73.9160   -5.8330 O         1 <0>         0.0117
  27177 WAT       -34.1820  -73.9160   -5.5830 O         1 <0>         0.0104
  27178 WAT       -34.1820  -73.9160   -5.3330 O         1 <0>         0.0096
  27179 WAT       -34.1820  -73.9160   -5.0830 O         1 <0>         0.0091
  27180 WAT       -34.1820  -73.9160   -4.8330 O         1 <0>         0.0078
  27181 WAT       -34.1820  -73.9160   -4.5830 O         1 <0>         0.0055
  27182 WAT       -34.1820  -73.9160   -4.3330 O         1 <0>         0.0031
  27183 WAT       -34.1820  -73.9160   -4.0830 O         1 <0>         0.0019
  27184 WAT       -34.1820  -73.9160   -3.8330 O         1 <0>         0.0024
  27185 WAT       -34.1820  -73.9160   -3.5830 O         1 <0>         0.0047
  27186 WAT       -34.1820  -73.9160   -3.3330 O         1 <0>         0.0094
  27187 WAT       -34.1820  -73.9160   -3.0830 O         1 <0>         0.0171
  27188 WAT       -34.1820  -73.9160   -2.8330 O         1 <0>         0.0264
  27189 WAT       -34.1820  -73.9160   -2.5830 O         1 <0>         0.0325
  27190 WAT       -34.1820  -73.9160   -2.3330 O         1 <0>         0.0306
  27191 WAT       -34.1820  -73.9160   -2.0830 O         1 <0>         0.0211
  27192 WAT       -34.1820  -73.9160   -1.8330 O         1 <0>         0.0104
  27193 WAT       -34.1820  -73.9160   -1.5830 O         1 <0>         0.0035
  27194 WAT       -34.1820  -73.9160   -1.3330 O         1 <0>         0.0008
  27195 WAT       -34.1820  -73.9160   -1.0830 O         1 <0>         0.0001
  27196 WAT       -34.1820  -73.9160   -0.8330 O         1 <0>         0.0000
  27197 WAT       -34.1820  -73.9160   -0.5830 O         1 <0>         0.0000
  27198 WAT       -34.1820  -73.9160   -0.3330 O         1 <0>         0.0000
  27199 WAT       -34.1820  -73.9160   -0.0830 O         1 <0>         0.0000
  27200 WAT       -34.1820  -73.6660   -9.8330 O         1 <0>         0.0000
  27201 WAT       -34.1820  -73.6660   -9.5830 O         1 <0>         0.0000
  27202 WAT       -34.1820  -73.6660   -9.3330 O         1 <0>         0.0000
  27203 WAT       -34.1820  -73.6660   -9.0830 O         1 <0>         0.0000
  27204 WAT       -34.1820  -73.6660   -8.8330 O         1 <0>         0.0000
  27205 WAT       -34.1820  -73.6660   -8.5830 O         1 <0>         0.0000
  27206 WAT       -34.1820  -73.6660   -8.3330 O         1 <0>         0.0000
  27207 WAT       -34.1820  -73.6660   -8.0830 O         1 <0>         0.0000
  27208 WAT       -34.1820  -73.6660   -7.8330 O         1 <0>         0.0000
  27209 WAT       -34.1820  -73.6660   -7.5830 O         1 <0>         0.0000
  27210 WAT       -34.1820  -73.6660   -7.3330 O         1 <0>         0.0001
  27211 WAT       -34.1820  -73.6660   -7.0830 O         1 <0>         0.0005
  27212 WAT       -34.1820  -73.6660   -6.8330 O         1 <0>         0.0016
  27213 WAT       -34.1820  -73.6660   -6.5830 O         1 <0>         0.0037
  27214 WAT       -34.1820  -73.6660   -6.3330 O         1 <0>         0.0064
  27215 WAT       -34.1820  -73.6660   -6.0830 O         1 <0>         0.0087
  27216 WAT       -34.1820  -73.6660   -5.8330 O         1 <0>         0.0095
  27217 WAT       -34.1820  -73.6660   -5.5830 O         1 <0>         0.0101
  27218 WAT       -34.1820  -73.6660   -5.3330 O         1 <0>         0.0114
  27219 WAT       -34.1820  -73.6660   -5.0830 O         1 <0>         0.0125
  27220 WAT       -34.1820  -73.6660   -4.8330 O         1 <0>         0.0115
  27221 WAT       -34.1820  -73.6660   -4.5830 O         1 <0>         0.0081
  27222 WAT       -34.1820  -73.6660   -4.3330 O         1 <0>         0.0042
  27223 WAT       -34.1820  -73.6660   -4.0830 O         1 <0>         0.0019
  27224 WAT       -34.1820  -73.6660   -3.8330 O         1 <0>         0.0013
  27225 WAT       -34.1820  -73.6660   -3.5830 O         1 <0>         0.0024
  27226 WAT       -34.1820  -73.6660   -3.3330 O         1 <0>         0.0054
  27227 WAT       -34.1820  -73.6660   -3.0830 O         1 <0>         0.0116
  27228 WAT       -34.1820  -73.6660   -2.8330 O         1 <0>         0.0210
  27229 WAT       -34.1820  -73.6660   -2.5830 O         1 <0>         0.0299
  27230 WAT       -34.1820  -73.6660   -2.3330 O         1 <0>         0.0323
  27231 WAT       -34.1820  -73.6660   -2.0830 O         1 <0>         0.0255
  27232 WAT       -34.1820  -73.6660   -1.8330 O         1 <0>         0.0144
  27233 WAT       -34.1820  -73.6660   -1.5830 O         1 <0>         0.0056
  27234 WAT       -34.1820  -73.6660   -1.3330 O         1 <0>         0.0015
  27235 WAT       -34.1820  -73.6660   -1.0830 O         1 <0>         0.0002
  27236 WAT       -34.1820  -73.6660   -0.8330 O         1 <0>         0.0000
  27237 WAT       -34.1820  -73.6660   -0.5830 O         1 <0>         0.0000
  27238 WAT       -34.1820  -73.6660   -0.3330 O         1 <0>         0.0000
  27239 WAT       -34.1820  -73.6660   -0.0830 O         1 <0>         0.0000
  27240 WAT       -34.1820  -73.4160   -9.8330 O         1 <0>         0.0000
  27241 WAT       -34.1820  -73.4160   -9.5830 O         1 <0>         0.0000
  27242 WAT       -34.1820  -73.4160   -9.3330 O         1 <0>         0.0000
  27243 WAT       -34.1820  -73.4160   -9.0830 O         1 <0>         0.0000
  27244 WAT       -34.1820  -73.4160   -8.8330 O         1 <0>         0.0000
  27245 WAT       -34.1820  -73.4160   -8.5830 O         1 <0>         0.0000
  27246 WAT       -34.1820  -73.4160   -8.3330 O         1 <0>         0.0000
  27247 WAT       -34.1820  -73.4160   -8.0830 O         1 <0>         0.0000
  27248 WAT       -34.1820  -73.4160   -7.8330 O         1 <0>         0.0000
  27249 WAT       -34.1820  -73.4160   -7.5830 O         1 <0>         0.0002
  27250 WAT       -34.1820  -73.4160   -7.3330 O         1 <0>         0.0005
  27251 WAT       -34.1820  -73.4160   -7.0830 O         1 <0>         0.0010
  27252 WAT       -34.1820  -73.4160   -6.8330 O         1 <0>         0.0018
  27253 WAT       -34.1820  -73.4160   -6.5830 O         1 <0>         0.0027
  27254 WAT       -34.1820  -73.4160   -6.3330 O         1 <0>         0.0038
  27255 WAT       -34.1820  -73.4160   -6.0830 O         1 <0>         0.0049
  27256 WAT       -34.1820  -73.4160   -5.8330 O         1 <0>         0.0059
  27257 WAT       -34.1820  -73.4160   -5.5830 O         1 <0>         0.0079
  27258 WAT       -34.1820  -73.4160   -5.3330 O         1 <0>         0.0112
  27259 WAT       -34.1820  -73.4160   -5.0830 O         1 <0>         0.0140
  27260 WAT       -34.1820  -73.4160   -4.8330 O         1 <0>         0.0137
  27261 WAT       -34.1820  -73.4160   -4.5830 O         1 <0>         0.0100
  27262 WAT       -34.1820  -73.4160   -4.3330 O         1 <0>         0.0053
  27263 WAT       -34.1820  -73.4160   -4.0830 O         1 <0>         0.0021
  27264 WAT       -34.1820  -73.4160   -3.8330 O         1 <0>         0.0009
  27265 WAT       -34.1820  -73.4160   -3.5830 O         1 <0>         0.0013
  27266 WAT       -34.1820  -73.4160   -3.3330 O         1 <0>         0.0033
  27267 WAT       -34.1820  -73.4160   -3.0830 O         1 <0>         0.0083
  27268 WAT       -34.1820  -73.4160   -2.8330 O         1 <0>         0.0170
  27269 WAT       -34.1820  -73.4160   -2.5830 O         1 <0>         0.0268
  27270 WAT       -34.1820  -73.4160   -2.3330 O         1 <0>         0.0315
  27271 WAT       -34.1820  -73.4160   -2.0830 O         1 <0>         0.0270
  27272 WAT       -34.1820  -73.4160   -1.8330 O         1 <0>         0.0164
  27273 WAT       -34.1820  -73.4160   -1.5830 O         1 <0>         0.0070
  27274 WAT       -34.1820  -73.4160   -1.3330 O         1 <0>         0.0020
  27275 WAT       -34.1820  -73.4160   -1.0830 O         1 <0>         0.0004
  27276 WAT       -34.1820  -73.4160   -0.8330 O         1 <0>         0.0000
  27277 WAT       -34.1820  -73.4160   -0.5830 O         1 <0>         0.0000
  27278 WAT       -34.1820  -73.4160   -0.3330 O         1 <0>         0.0000
  27279 WAT       -34.1820  -73.4160   -0.0830 O         1 <0>         0.0000
  27280 WAT       -34.1820  -73.1660   -9.8330 O         1 <0>         0.0000
  27281 WAT       -34.1820  -73.1660   -9.5830 O         1 <0>         0.0000
  27282 WAT       -34.1820  -73.1660   -9.3330 O         1 <0>         0.0000
  27283 WAT       -34.1820  -73.1660   -9.0830 O         1 <0>         0.0000
  27284 WAT       -34.1820  -73.1660   -8.8330 O         1 <0>         0.0000
  27285 WAT       -34.1820  -73.1660   -8.5830 O         1 <0>         0.0000
  27286 WAT       -34.1820  -73.1660   -8.3330 O         1 <0>         0.0000
  27287 WAT       -34.1820  -73.1660   -8.0830 O         1 <0>         0.0000
  27288 WAT       -34.1820  -73.1660   -7.8330 O         1 <0>         0.0003
  27289 WAT       -34.1820  -73.1660   -7.5830 O         1 <0>         0.0013
  27290 WAT       -34.1820  -73.1660   -7.3330 O         1 <0>         0.0027
  27291 WAT       -34.1820  -73.1660   -7.0830 O         1 <0>         0.0035
  27292 WAT       -34.1820  -73.1660   -6.8330 O         1 <0>         0.0034
  27293 WAT       -34.1820  -73.1660   -6.5830 O         1 <0>         0.0028
  27294 WAT       -34.1820  -73.1660   -6.3330 O         1 <0>         0.0023
  27295 WAT       -34.1820  -73.1660   -6.0830 O         1 <0>         0.0023
  27296 WAT       -34.1820  -73.1660   -5.8330 O         1 <0>         0.0030
  27297 WAT       -34.1820  -73.1660   -5.5830 O         1 <0>         0.0052
  27298 WAT       -34.1820  -73.1660   -5.3330 O         1 <0>         0.0088
  27299 WAT       -34.1820  -73.1660   -5.0830 O         1 <0>         0.0122
  27300 WAT       -34.1820  -73.1660   -4.8330 O         1 <0>         0.0127
  27301 WAT       -34.1820  -73.1660   -4.5830 O         1 <0>         0.0097
  27302 WAT       -34.1820  -73.1660   -4.3330 O         1 <0>         0.0053
  27303 WAT       -34.1820  -73.1660   -4.0830 O         1 <0>         0.0021
  27304 WAT       -34.1820  -73.1660   -3.8330 O         1 <0>         0.0008
  27305 WAT       -34.1820  -73.1660   -3.5830 O         1 <0>         0.0009
  27306 WAT       -34.1820  -73.1660   -3.3330 O         1 <0>         0.0026
  27307 WAT       -34.1820  -73.1660   -3.0830 O         1 <0>         0.0070
  27308 WAT       -34.1820  -73.1660   -2.8330 O         1 <0>         0.0145
  27309 WAT       -34.1820  -73.1660   -2.5830 O         1 <0>         0.0230
  27310 WAT       -34.1820  -73.1660   -2.3330 O         1 <0>         0.0272
  27311 WAT       -34.1820  -73.1660   -2.0830 O         1 <0>         0.0234
  27312 WAT       -34.1820  -73.1660   -1.8330 O         1 <0>         0.0145
  27313 WAT       -34.1820  -73.1660   -1.5830 O         1 <0>         0.0064
  27314 WAT       -34.1820  -73.1660   -1.3330 O         1 <0>         0.0019
  27315 WAT       -34.1820  -73.1660   -1.0830 O         1 <0>         0.0004
  27316 WAT       -34.1820  -73.1660   -0.8330 O         1 <0>         0.0000
  27317 WAT       -34.1820  -73.1660   -0.5830 O         1 <0>         0.0000
  27318 WAT       -34.1820  -73.1660   -0.3330 O         1 <0>         0.0000
  27319 WAT       -34.1820  -73.1660   -0.0830 O         1 <0>         0.0000
  27320 WAT       -34.1820  -72.9160   -9.8330 O         1 <0>         0.0000
  27321 WAT       -34.1820  -72.9160   -9.5830 O         1 <0>         0.0000
  27322 WAT       -34.1820  -72.9160   -9.3330 O         1 <0>         0.0000
  27323 WAT       -34.1820  -72.9160   -9.0830 O         1 <0>         0.0000
  27324 WAT       -34.1820  -72.9160   -8.8330 O         1 <0>         0.0000
  27325 WAT       -34.1820  -72.9160   -8.5830 O         1 <0>         0.0000
  27326 WAT       -34.1820  -72.9160   -8.3330 O         1 <0>         0.0000
  27327 WAT       -34.1820  -72.9160   -8.0830 O         1 <0>         0.0002
  27328 WAT       -34.1820  -72.9160   -7.8330 O         1 <0>         0.0017
  27329 WAT       -34.1820  -72.9160   -7.5830 O         1 <0>         0.0057
  27330 WAT       -34.1820  -72.9160   -7.3330 O         1 <0>         0.0102
  27331 WAT       -34.1820  -72.9160   -7.0830 O         1 <0>         0.0113
  27332 WAT       -34.1820  -72.9160   -6.8330 O         1 <0>         0.0084
  27333 WAT       -34.1820  -72.9160   -6.5830 O         1 <0>         0.0045
  27334 WAT       -34.1820  -72.9160   -6.3330 O         1 <0>         0.0021
  27335 WAT       -34.1820  -72.9160   -6.0830 O         1 <0>         0.0011
  27336 WAT       -34.1820  -72.9160   -5.8330 O         1 <0>         0.0013
  27337 WAT       -34.1820  -72.9160   -5.5830 O         1 <0>         0.0027
  27338 WAT       -34.1820  -72.9160   -5.3330 O         1 <0>         0.0053
  27339 WAT       -34.1820  -72.9160   -5.0830 O         1 <0>         0.0079
  27340 WAT       -34.1820  -72.9160   -4.8330 O         1 <0>         0.0090
  27341 WAT       -34.1820  -72.9160   -4.5830 O         1 <0>         0.0072
  27342 WAT       -34.1820  -72.9160   -4.3330 O         1 <0>         0.0041
  27343 WAT       -34.1820  -72.9160   -4.0830 O         1 <0>         0.0017
  27344 WAT       -34.1820  -72.9160   -3.8330 O         1 <0>         0.0006
  27345 WAT       -34.1820  -72.9160   -3.5830 O         1 <0>         0.0007
  27346 WAT       -34.1820  -72.9160   -3.3330 O         1 <0>         0.0023
  27347 WAT       -34.1820  -72.9160   -3.0830 O         1 <0>         0.0060
  27348 WAT       -34.1820  -72.9160   -2.8330 O         1 <0>         0.0117
  27349 WAT       -34.1820  -72.9160   -2.5830 O         1 <0>         0.0172
  27350 WAT       -34.1820  -72.9160   -2.3330 O         1 <0>         0.0190
  27351 WAT       -34.1820  -72.9160   -2.0830 O         1 <0>         0.0155
  27352 WAT       -34.1820  -72.9160   -1.8330 O         1 <0>         0.0093
  27353 WAT       -34.1820  -72.9160   -1.5830 O         1 <0>         0.0040
  27354 WAT       -34.1820  -72.9160   -1.3330 O         1 <0>         0.0012
  27355 WAT       -34.1820  -72.9160   -1.0830 O         1 <0>         0.0002
  27356 WAT       -34.1820  -72.9160   -0.8330 O         1 <0>         0.0000
  27357 WAT       -34.1820  -72.9160   -0.5830 O         1 <0>         0.0000
  27358 WAT       -34.1820  -72.9160   -0.3330 O         1 <0>         0.0000
  27359 WAT       -34.1820  -72.9160   -0.0830 O         1 <0>         0.0000
  27360 WAT       -34.1820  -72.6660   -9.8330 O         1 <0>         0.0000
  27361 WAT       -34.1820  -72.6660   -9.5830 O         1 <0>         0.0000
  27362 WAT       -34.1820  -72.6660   -9.3330 O         1 <0>         0.0000
  27363 WAT       -34.1820  -72.6660   -9.0830 O         1 <0>         0.0000
  27364 WAT       -34.1820  -72.6660   -8.8330 O         1 <0>         0.0000
  27365 WAT       -34.1820  -72.6660   -8.5830 O         1 <0>         0.0000
  27366 WAT       -34.1820  -72.6660   -8.3330 O         1 <0>         0.0000
  27367 WAT       -34.1820  -72.6660   -8.0830 O         1 <0>         0.0010
  27368 WAT       -34.1820  -72.6660   -7.8330 O         1 <0>         0.0064
  27369 WAT       -34.1820  -72.6660   -7.5830 O         1 <0>         0.0178
  27370 WAT       -34.1820  -72.6660   -7.3330 O         1 <0>         0.0284
  27371 WAT       -34.1820  -72.6660   -7.0830 O         1 <0>         0.0283
  27372 WAT       -34.1820  -72.6660   -6.8330 O         1 <0>         0.0183
  27373 WAT       -34.1820  -72.6660   -6.5830 O         1 <0>         0.0078
  27374 WAT       -34.1820  -72.6660   -6.3330 O         1 <0>         0.0024
  27375 WAT       -34.1820  -72.6660   -6.0830 O         1 <0>         0.0007
  27376 WAT       -34.1820  -72.6660   -5.8330 O         1 <0>         0.0005
  27377 WAT       -34.1820  -72.6660   -5.5830 O         1 <0>         0.0011
  27378 WAT       -34.1820  -72.6660   -5.3330 O         1 <0>         0.0024
  27379 WAT       -34.1820  -72.6660   -5.0830 O         1 <0>         0.0039
  27380 WAT       -34.1820  -72.6660   -4.8330 O         1 <0>         0.0048
  27381 WAT       -34.1820  -72.6660   -4.5830 O         1 <0>         0.0042
  27382 WAT       -34.1820  -72.6660   -4.3330 O         1 <0>         0.0026
  27383 WAT       -34.1820  -72.6660   -4.0830 O         1 <0>         0.0011
  27384 WAT       -34.1820  -72.6660   -3.8330 O         1 <0>         0.0004
  27385 WAT       -34.1820  -72.6660   -3.5830 O         1 <0>         0.0005
  27386 WAT       -34.1820  -72.6660   -3.3330 O         1 <0>         0.0017
  27387 WAT       -34.1820  -72.6660   -3.0830 O         1 <0>         0.0042
  27388 WAT       -34.1820  -72.6660   -2.8330 O         1 <0>         0.0077
  27389 WAT       -34.1820  -72.6660   -2.5830 O         1 <0>         0.0101
  27390 WAT       -34.1820  -72.6660   -2.3330 O         1 <0>         0.0100
  27391 WAT       -34.1820  -72.6660   -2.0830 O         1 <0>         0.0075
  27392 WAT       -34.1820  -72.6660   -1.8330 O         1 <0>         0.0041
  27393 WAT       -34.1820  -72.6660   -1.5830 O         1 <0>         0.0017
  27394 WAT       -34.1820  -72.6660   -1.3330 O         1 <0>         0.0005
  27395 WAT       -34.1820  -72.6660   -1.0830 O         1 <0>         0.0001
  27396 WAT       -34.1820  -72.6660   -0.8330 O         1 <0>         0.0000
  27397 WAT       -34.1820  -72.6660   -0.5830 O         1 <0>         0.0000
  27398 WAT       -34.1820  -72.6660   -0.3330 O         1 <0>         0.0000
  27399 WAT       -34.1820  -72.6660   -0.0830 O         1 <0>         0.0000
  27400 WAT       -34.1820  -72.4160   -9.8330 O         1 <0>         0.0000
  27401 WAT       -34.1820  -72.4160   -9.5830 O         1 <0>         0.0000
  27402 WAT       -34.1820  -72.4160   -9.3330 O         1 <0>         0.0000
  27403 WAT       -34.1820  -72.4160   -9.0830 O         1 <0>         0.0000
  27404 WAT       -34.1820  -72.4160   -8.8330 O         1 <0>         0.0000
  27405 WAT       -34.1820  -72.4160   -8.5830 O         1 <0>         0.0000
  27406 WAT       -34.1820  -72.4160   -8.3330 O         1 <0>         0.0002
  27407 WAT       -34.1820  -72.4160   -8.0830 O         1 <0>         0.0035
  27408 WAT       -34.1820  -72.4160   -7.8330 O         1 <0>         0.0167
  27409 WAT       -34.1820  -72.4160   -7.5830 O         1 <0>         0.0404
  27410 WAT       -34.1820  -72.4160   -7.3330 O         1 <0>         0.0588
  27411 WAT       -34.1820  -72.4160   -7.0830 O         1 <0>         0.0540
  27412 WAT       -34.1820  -72.4160   -6.8330 O         1 <0>         0.0319
  27413 WAT       -34.1820  -72.4160   -6.5830 O         1 <0>         0.0118
  27414 WAT       -34.1820  -72.4160   -6.3330 O         1 <0>         0.0027
  27415 WAT       -34.1820  -72.4160   -6.0830 O         1 <0>         0.0005
  27416 WAT       -34.1820  -72.4160   -5.8330 O         1 <0>         0.0002
  27417 WAT       -34.1820  -72.4160   -5.5830 O         1 <0>         0.0004
  27418 WAT       -34.1820  -72.4160   -5.3330 O         1 <0>         0.0009
  27419 WAT       -34.1820  -72.4160   -5.0830 O         1 <0>         0.0016
  27420 WAT       -34.1820  -72.4160   -4.8330 O         1 <0>         0.0021
  27421 WAT       -34.1820  -72.4160   -4.5830 O         1 <0>         0.0020
  27422 WAT       -34.1820  -72.4160   -4.3330 O         1 <0>         0.0013
  27423 WAT       -34.1820  -72.4160   -4.0830 O         1 <0>         0.0006
  27424 WAT       -34.1820  -72.4160   -3.8330 O         1 <0>         0.0002
  27425 WAT       -34.1820  -72.4160   -3.5830 O         1 <0>         0.0002
  27426 WAT       -34.1820  -72.4160   -3.3330 O         1 <0>         0.0008
  27427 WAT       -34.1820  -72.4160   -3.0830 O         1 <0>         0.0021
  27428 WAT       -34.1820  -72.4160   -2.8330 O         1 <0>         0.0036
  27429 WAT       -34.1820  -72.4160   -2.5830 O         1 <0>         0.0043
  27430 WAT       -34.1820  -72.4160   -2.3330 O         1 <0>         0.0038
  27431 WAT       -34.1820  -72.4160   -2.0830 O         1 <0>         0.0025
  27432 WAT       -34.1820  -72.4160   -1.8330 O         1 <0>         0.0012
  27433 WAT       -34.1820  -72.4160   -1.5830 O         1 <0>         0.0004
  27434 WAT       -34.1820  -72.4160   -1.3330 O         1 <0>         0.0001
  27435 WAT       -34.1820  -72.4160   -1.0830 O         1 <0>         0.0000
  27436 WAT       -34.1820  -72.4160   -0.8330 O         1 <0>         0.0000
  27437 WAT       -34.1820  -72.4160   -0.5830 O         1 <0>         0.0000
  27438 WAT       -34.1820  -72.4160   -0.3330 O         1 <0>         0.0000
  27439 WAT       -34.1820  -72.4160   -0.0830 O         1 <0>         0.0000
  27440 WAT       -34.1820  -72.1660   -9.8330 O         1 <0>         0.0000
  27441 WAT       -34.1820  -72.1660   -9.5830 O         1 <0>         0.0000
  27442 WAT       -34.1820  -72.1660   -9.3330 O         1 <0>         0.0000
  27443 WAT       -34.1820  -72.1660   -9.0830 O         1 <0>         0.0000
  27444 WAT       -34.1820  -72.1660   -8.8330 O         1 <0>         0.0000
  27445 WAT       -34.1820  -72.1660   -8.5830 O         1 <0>         0.0000
  27446 WAT       -34.1820  -72.1660   -8.3330 O         1 <0>         0.0007
  27447 WAT       -34.1820  -72.1660   -8.0830 O         1 <0>         0.0078
  27448 WAT       -34.1820  -72.1660   -7.8330 O         1 <0>         0.0313
  27449 WAT       -34.1820  -72.1660   -7.5830 O         1 <0>         0.0686
  27450 WAT       -34.1820  -72.1660   -7.3330 O         1 <0>         0.0928
  27451 WAT       -34.1820  -72.1660   -7.0830 O         1 <0>         0.0796
  27452 WAT       -34.1820  -72.1660   -6.8330 O         1 <0>         0.0436
  27453 WAT       -34.1820  -72.1660   -6.5830 O         1 <0>         0.0145
  27454 WAT       -34.1820  -72.1660   -6.3330 O         1 <0>         0.0026
  27455 WAT       -34.1820  -72.1660   -6.0830 O         1 <0>         0.0003
  27456 WAT       -34.1820  -72.1660   -5.8330 O         1 <0>         0.0002
  27457 WAT       -34.1820  -72.1660   -5.5830 O         1 <0>         0.0002
  27458 WAT       -34.1820  -72.1660   -5.3330 O         1 <0>         0.0003
  27459 WAT       -34.1820  -72.1660   -5.0830 O         1 <0>         0.0005
  27460 WAT       -34.1820  -72.1660   -4.8330 O         1 <0>         0.0007
  27461 WAT       -34.1820  -72.1660   -4.5830 O         1 <0>         0.0007
  27462 WAT       -34.1820  -72.1660   -4.3330 O         1 <0>         0.0005
  27463 WAT       -34.1820  -72.1660   -4.0830 O         1 <0>         0.0002
  27464 WAT       -34.1820  -72.1660   -3.8330 O         1 <0>         0.0001
  27465 WAT       -34.1820  -72.1660   -3.5830 O         1 <0>         0.0001
  27466 WAT       -34.1820  -72.1660   -3.3330 O         1 <0>         0.0002
  27467 WAT       -34.1820  -72.1660   -3.0830 O         1 <0>         0.0006
  27468 WAT       -34.1820  -72.1660   -2.8330 O         1 <0>         0.0011
  27469 WAT       -34.1820  -72.1660   -2.5830 O         1 <0>         0.0012
  27470 WAT       -34.1820  -72.1660   -2.3330 O         1 <0>         0.0009
  27471 WAT       -34.1820  -72.1660   -2.0830 O         1 <0>         0.0005
  27472 WAT       -34.1820  -72.1660   -1.8330 O         1 <0>         0.0002
  27473 WAT       -34.1820  -72.1660   -1.5830 O         1 <0>         0.0001
  27474 WAT       -34.1820  -72.1660   -1.3330 O         1 <0>         0.0000
  27475 WAT       -34.1820  -72.1660   -1.0830 O         1 <0>         0.0000
  27476 WAT       -34.1820  -72.1660   -0.8330 O         1 <0>         0.0000
  27477 WAT       -34.1820  -72.1660   -0.5830 O         1 <0>         0.0000
  27478 WAT       -34.1820  -72.1660   -0.3330 O         1 <0>         0.0000
  27479 WAT       -34.1820  -72.1660   -0.0830 O         1 <0>         0.0000
  27480 WAT       -34.1820  -71.9160   -9.8330 O         1 <0>         0.0000
  27481 WAT       -34.1820  -71.9160   -9.5830 O         1 <0>         0.0000
  27482 WAT       -34.1820  -71.9160   -9.3330 O         1 <0>         0.0000
  27483 WAT       -34.1820  -71.9160   -9.0830 O         1 <0>         0.0000
  27484 WAT       -34.1820  -71.9160   -8.8330 O         1 <0>         0.0000
  27485 WAT       -34.1820  -71.9160   -8.5830 O         1 <0>         0.0000
  27486 WAT       -34.1820  -71.9160   -8.3330 O         1 <0>         0.0014
  27487 WAT       -34.1820  -71.9160   -8.0830 O         1 <0>         0.0119
  27488 WAT       -34.1820  -71.9160   -7.8330 O         1 <0>         0.0426
  27489 WAT       -34.1820  -71.9160   -7.5830 O         1 <0>         0.0879
  27490 WAT       -34.1820  -71.9160   -7.3330 O         1 <0>         0.1123
  27491 WAT       -34.1820  -71.9160   -7.0830 O         1 <0>         0.0909
  27492 WAT       -34.1820  -71.9160   -6.8330 O         1 <0>         0.0467
  27493 WAT       -34.1820  -71.9160   -6.5830 O         1 <0>         0.0141
  27494 WAT       -34.1820  -71.9160   -6.3330 O         1 <0>         0.0021
  27495 WAT       -34.1820  -71.9160   -6.0830 O         1 <0>         0.0002
  27496 WAT       -34.1820  -71.9160   -5.8330 O         1 <0>         0.0001
  27497 WAT       -34.1820  -71.9160   -5.5830 O         1 <0>         0.0001
  27498 WAT       -34.1820  -71.9160   -5.3330 O         1 <0>         0.0001
  27499 WAT       -34.1820  -71.9160   -5.0830 O         1 <0>         0.0002
  27500 WAT       -34.1820  -71.9160   -4.8330 O         1 <0>         0.0002
  27501 WAT       -34.1820  -71.9160   -4.5830 O         1 <0>         0.0002
  27502 WAT       -34.1820  -71.9160   -4.3330 O         1 <0>         0.0001
  27503 WAT       -34.1820  -71.9160   -4.0830 O         1 <0>         0.0001
  27504 WAT       -34.1820  -71.9160   -3.8330 O         1 <0>         0.0000
  27505 WAT       -34.1820  -71.9160   -3.5830 O         1 <0>         0.0000
  27506 WAT       -34.1820  -71.9160   -3.3330 O         1 <0>         0.0000
  27507 WAT       -34.1820  -71.9160   -3.0830 O         1 <0>         0.0001
  27508 WAT       -34.1820  -71.9160   -2.8330 O         1 <0>         0.0002
  27509 WAT       -34.1820  -71.9160   -2.5830 O         1 <0>         0.0002
  27510 WAT       -34.1820  -71.9160   -2.3330 O         1 <0>         0.0001
  27511 WAT       -34.1820  -71.9160   -2.0830 O         1 <0>         0.0000
  27512 WAT       -34.1820  -71.9160   -1.8330 O         1 <0>         0.0000
  27513 WAT       -34.1820  -71.9160   -1.5830 O         1 <0>         0.0000
  27514 WAT       -34.1820  -71.9160   -1.3330 O         1 <0>         0.0000
  27515 WAT       -34.1820  -71.9160   -1.0830 O         1 <0>         0.0000
  27516 WAT       -34.1820  -71.9160   -0.8330 O         1 <0>         0.0000
  27517 WAT       -34.1820  -71.9160   -0.5830 O         1 <0>         0.0000
  27518 WAT       -34.1820  -71.9160   -0.3330 O         1 <0>         0.0000
  27519 WAT       -34.1820  -71.9160   -0.0830 O         1 <0>         0.0000
  27520 WAT       -34.1820  -71.6660   -9.8330 O         1 <0>         0.0000
  27521 WAT       -34.1820  -71.6660   -9.5830 O         1 <0>         0.0000
  27522 WAT       -34.1820  -71.6660   -9.3330 O         1 <0>         0.0000
  27523 WAT       -34.1820  -71.6660   -9.0830 O         1 <0>         0.0000
  27524 WAT       -34.1820  -71.6660   -8.8330 O         1 <0>         0.0000
  27525 WAT       -34.1820  -71.6660   -8.5830 O         1 <0>         0.0000
  27526 WAT       -34.1820  -71.6660   -8.3330 O         1 <0>         0.0017
  27527 WAT       -34.1820  -71.6660   -8.0830 O         1 <0>         0.0127
  27528 WAT       -34.1820  -71.6660   -7.8330 O         1 <0>         0.0429
  27529 WAT       -34.1820  -71.6660   -7.5830 O         1 <0>         0.0846
  27530 WAT       -34.1820  -71.6660   -7.3330 O         1 <0>         0.1034
  27531 WAT       -34.1820  -71.6660   -7.0830 O         1 <0>         0.0797
  27532 WAT       -34.1820  -71.6660   -6.8330 O         1 <0>         0.0387
  27533 WAT       -34.1820  -71.6660   -6.5830 O         1 <0>         0.0106
  27534 WAT       -34.1820  -71.6660   -6.3330 O         1 <0>         0.0013
  27535 WAT       -34.1820  -71.6660   -6.0830 O         1 <0>         0.0001
  27536 WAT       -34.1820  -71.6660   -5.8330 O         1 <0>         0.0001
  27537 WAT       -34.1820  -71.6660   -5.5830 O         1 <0>         0.0001
  27538 WAT       -34.1820  -71.6660   -5.3330 O         1 <0>         0.0001
  27539 WAT       -34.1820  -71.6660   -5.0830 O         1 <0>         0.0000
  27540 WAT       -34.1820  -71.6660   -4.8330 O         1 <0>         0.0000
  27541 WAT       -34.1820  -71.6660   -4.5830 O         1 <0>         0.0000
  27542 WAT       -34.1820  -71.6660   -4.3330 O         1 <0>         0.0000
  27543 WAT       -34.1820  -71.6660   -4.0830 O         1 <0>         0.0000
  27544 WAT       -34.1820  -71.6660   -3.8330 O         1 <0>         0.0000
  27545 WAT       -34.1820  -71.6660   -3.5830 O         1 <0>         0.0000
  27546 WAT       -34.1820  -71.6660   -3.3330 O         1 <0>         0.0000
  27547 WAT       -34.1820  -71.6660   -3.0830 O         1 <0>         0.0000
  27548 WAT       -34.1820  -71.6660   -2.8330 O         1 <0>         0.0000
  27549 WAT       -34.1820  -71.6660   -2.5830 O         1 <0>         0.0000
  27550 WAT       -34.1820  -71.6660   -2.3330 O         1 <0>         0.0000
  27551 WAT       -34.1820  -71.6660   -2.0830 O         1 <0>         0.0000
  27552 WAT       -34.1820  -71.6660   -1.8330 O         1 <0>         0.0000
  27553 WAT       -34.1820  -71.6660   -1.5830 O         1 <0>         0.0000
  27554 WAT       -34.1820  -71.6660   -1.3330 O         1 <0>         0.0000
  27555 WAT       -34.1820  -71.6660   -1.0830 O         1 <0>         0.0000
  27556 WAT       -34.1820  -71.6660   -0.8330 O         1 <0>         0.0000
  27557 WAT       -34.1820  -71.6660   -0.5830 O         1 <0>         0.0000
  27558 WAT       -34.1820  -71.6660   -0.3330 O         1 <0>         0.0000
  27559 WAT       -34.1820  -71.6660   -0.0830 O         1 <0>         0.0000
  27560 WAT       -34.1820  -71.4160   -9.8330 O         1 <0>         0.0000
  27561 WAT       -34.1820  -71.4160   -9.5830 O         1 <0>         0.0000
  27562 WAT       -34.1820  -71.4160   -9.3330 O         1 <0>         0.0000
  27563 WAT       -34.1820  -71.4160   -9.0830 O         1 <0>         0.0000
  27564 WAT       -34.1820  -71.4160   -8.8330 O         1 <0>         0.0000
  27565 WAT       -34.1820  -71.4160   -8.5830 O         1 <0>         0.0000
  27566 WAT       -34.1820  -71.4160   -8.3330 O         1 <0>         0.0013
  27567 WAT       -34.1820  -71.4160   -8.0830 O         1 <0>         0.0095
  27568 WAT       -34.1820  -71.4160   -7.8330 O         1 <0>         0.0316
  27569 WAT       -34.1820  -71.4160   -7.5830 O         1 <0>         0.0607
  27570 WAT       -34.1820  -71.4160   -7.3330 O         1 <0>         0.0719
  27571 WAT       -34.1820  -71.4160   -7.0830 O         1 <0>         0.0535
  27572 WAT       -34.1820  -71.4160   -6.8330 O         1 <0>         0.0246
  27573 WAT       -34.1820  -71.4160   -6.5830 O         1 <0>         0.0062
  27574 WAT       -34.1820  -71.4160   -6.3330 O         1 <0>         0.0008
  27575 WAT       -34.1820  -71.4160   -6.0830 O         1 <0>         0.0001
  27576 WAT       -34.1820  -71.4160   -5.8330 O         1 <0>         0.0000
  27577 WAT       -34.1820  -71.4160   -5.5830 O         1 <0>         0.0000
  27578 WAT       -34.1820  -71.4160   -5.3330 O         1 <0>         0.0000
  27579 WAT       -34.1820  -71.4160   -5.0830 O         1 <0>         0.0000
  27580 WAT       -34.1820  -71.4160   -4.8330 O         1 <0>         0.0000
  27581 WAT       -34.1820  -71.4160   -4.5830 O         1 <0>         0.0000
  27582 WAT       -34.1820  -71.4160   -4.3330 O         1 <0>         0.0000
  27583 WAT       -34.1820  -71.4160   -4.0830 O         1 <0>         0.0000
  27584 WAT       -34.1820  -71.4160   -3.8330 O         1 <0>         0.0000
  27585 WAT       -34.1820  -71.4160   -3.5830 O         1 <0>         0.0000
  27586 WAT       -34.1820  -71.4160   -3.3330 O         1 <0>         0.0000
  27587 WAT       -34.1820  -71.4160   -3.0830 O         1 <0>         0.0000
  27588 WAT       -34.1820  -71.4160   -2.8330 O         1 <0>         0.0000
  27589 WAT       -34.1820  -71.4160   -2.5830 O         1 <0>         0.0000
  27590 WAT       -34.1820  -71.4160   -2.3330 O         1 <0>         0.0000
  27591 WAT       -34.1820  -71.4160   -2.0830 O         1 <0>         0.0000
  27592 WAT       -34.1820  -71.4160   -1.8330 O         1 <0>         0.0000
  27593 WAT       -34.1820  -71.4160   -1.5830 O         1 <0>         0.0000
  27594 WAT       -34.1820  -71.4160   -1.3330 O         1 <0>         0.0000
  27595 WAT       -34.1820  -71.4160   -1.0830 O         1 <0>         0.0000
  27596 WAT       -34.1820  -71.4160   -0.8330 O         1 <0>         0.0000
  27597 WAT       -34.1820  -71.4160   -0.5830 O         1 <0>         0.0000
  27598 WAT       -34.1820  -71.4160   -0.3330 O         1 <0>         0.0000
  27599 WAT       -34.1820  -71.4160   -0.0830 O         1 <0>         0.0000
  27600 WAT       -34.1820  -71.1660   -9.8330 O         1 <0>         0.0000
  27601 WAT       -34.1820  -71.1660   -9.5830 O         1 <0>         0.0000
  27602 WAT       -34.1820  -71.1660   -9.3330 O         1 <0>         0.0000
  27603 WAT       -34.1820  -71.1660   -9.0830 O         1 <0>         0.0000
  27604 WAT       -34.1820  -71.1660   -8.8330 O         1 <0>         0.0000
  27605 WAT       -34.1820  -71.1660   -8.5830 O         1 <0>         0.0000
  27606 WAT       -34.1820  -71.1660   -8.3330 O         1 <0>         0.0007
  27607 WAT       -34.1820  -71.1660   -8.0830 O         1 <0>         0.0050
  27608 WAT       -34.1820  -71.1660   -7.8330 O         1 <0>         0.0169
  27609 WAT       -34.1820  -71.1660   -7.5830 O         1 <0>         0.0323
  27610 WAT       -34.1820  -71.1660   -7.3330 O         1 <0>         0.0379
  27611 WAT       -34.1820  -71.1660   -7.0830 O         1 <0>         0.0276
  27612 WAT       -34.1820  -71.1660   -6.8330 O         1 <0>         0.0122
  27613 WAT       -34.1820  -71.1660   -6.5830 O         1 <0>         0.0031
  27614 WAT       -34.1820  -71.1660   -6.3330 O         1 <0>         0.0005
  27615 WAT       -34.1820  -71.1660   -6.0830 O         1 <0>         0.0001
  27616 WAT       -34.1820  -71.1660   -5.8330 O         1 <0>         0.0000
  27617 WAT       -34.1820  -71.1660   -5.5830 O         1 <0>         0.0000
  27618 WAT       -34.1820  -71.1660   -5.3330 O         1 <0>         0.0000
  27619 WAT       -34.1820  -71.1660   -5.0830 O         1 <0>         0.0000
  27620 WAT       -34.1820  -71.1660   -4.8330 O         1 <0>         0.0000
  27621 WAT       -34.1820  -71.1660   -4.5830 O         1 <0>         0.0000
  27622 WAT       -34.1820  -71.1660   -4.3330 O         1 <0>         0.0000
  27623 WAT       -34.1820  -71.1660   -4.0830 O         1 <0>         0.0000
  27624 WAT       -34.1820  -71.1660   -3.8330 O         1 <0>         0.0000
  27625 WAT       -34.1820  -71.1660   -3.5830 O         1 <0>         0.0000
  27626 WAT       -34.1820  -71.1660   -3.3330 O         1 <0>         0.0000
  27627 WAT       -34.1820  -71.1660   -3.0830 O         1 <0>         0.0000
  27628 WAT       -34.1820  -71.1660   -2.8330 O         1 <0>         0.0000
  27629 WAT       -34.1820  -71.1660   -2.5830 O         1 <0>         0.0000
  27630 WAT       -34.1820  -71.1660   -2.3330 O         1 <0>         0.0000
  27631 WAT       -34.1820  -71.1660   -2.0830 O         1 <0>         0.0000
  27632 WAT       -34.1820  -71.1660   -1.8330 O         1 <0>         0.0000
  27633 WAT       -34.1820  -71.1660   -1.5830 O         1 <0>         0.0000
  27634 WAT       -34.1820  -71.1660   -1.3330 O         1 <0>         0.0000
  27635 WAT       -34.1820  -71.1660   -1.0830 O         1 <0>         0.0000
  27636 WAT       -34.1820  -71.1660   -0.8330 O         1 <0>         0.0000
  27637 WAT       -34.1820  -71.1660   -0.5830 O         1 <0>         0.0000
  27638 WAT       -34.1820  -71.1660   -0.3330 O         1 <0>         0.0000
  27639 WAT       -34.1820  -71.1660   -0.0830 O         1 <0>         0.0000
  27640 WAT       -34.1820  -70.9160   -9.8330 O         1 <0>         0.0000
  27641 WAT       -34.1820  -70.9160   -9.5830 O         1 <0>         0.0000
  27642 WAT       -34.1820  -70.9160   -9.3330 O         1 <0>         0.0000
  27643 WAT       -34.1820  -70.9160   -9.0830 O         1 <0>         0.0000
  27644 WAT       -34.1820  -70.9160   -8.8330 O         1 <0>         0.0000
  27645 WAT       -34.1820  -70.9160   -8.5830 O         1 <0>         0.0000
  27646 WAT       -34.1820  -70.9160   -8.3330 O         1 <0>         0.0002
  27647 WAT       -34.1820  -70.9160   -8.0830 O         1 <0>         0.0018
  27648 WAT       -34.1820  -70.9160   -7.8330 O         1 <0>         0.0065
  27649 WAT       -34.1820  -70.9160   -7.5830 O         1 <0>         0.0129
  27650 WAT       -34.1820  -70.9160   -7.3330 O         1 <0>         0.0155
  27651 WAT       -34.1820  -70.9160   -7.0830 O         1 <0>         0.0116
  27652 WAT       -34.1820  -70.9160   -6.8330 O         1 <0>         0.0056
  27653 WAT       -34.1820  -70.9160   -6.5830 O         1 <0>         0.0019
  27654 WAT       -34.1820  -70.9160   -6.3330 O         1 <0>         0.0006
  27655 WAT       -34.1820  -70.9160   -6.0830 O         1 <0>         0.0002
  27656 WAT       -34.1820  -70.9160   -5.8330 O         1 <0>         0.0000
  27657 WAT       -34.1820  -70.9160   -5.5830 O         1 <0>         0.0000
  27658 WAT       -34.1820  -70.9160   -5.3330 O         1 <0>         0.0000
  27659 WAT       -34.1820  -70.9160   -5.0830 O         1 <0>         0.0000
  27660 WAT       -34.1820  -70.9160   -4.8330 O         1 <0>         0.0000
  27661 WAT       -34.1820  -70.9160   -4.5830 O         1 <0>         0.0000
  27662 WAT       -34.1820  -70.9160   -4.3330 O         1 <0>         0.0000
  27663 WAT       -34.1820  -70.9160   -4.0830 O         1 <0>         0.0000
  27664 WAT       -34.1820  -70.9160   -3.8330 O         1 <0>         0.0000
  27665 WAT       -34.1820  -70.9160   -3.5830 O         1 <0>         0.0000
  27666 WAT       -34.1820  -70.9160   -3.3330 O         1 <0>         0.0000
  27667 WAT       -34.1820  -70.9160   -3.0830 O         1 <0>         0.0000
  27668 WAT       -34.1820  -70.9160   -2.8330 O         1 <0>         0.0000
  27669 WAT       -34.1820  -70.9160   -2.5830 O         1 <0>         0.0000
  27670 WAT       -34.1820  -70.9160   -2.3330 O         1 <0>         0.0000
  27671 WAT       -34.1820  -70.9160   -2.0830 O         1 <0>         0.0000
  27672 WAT       -34.1820  -70.9160   -1.8330 O         1 <0>         0.0000
  27673 WAT       -34.1820  -70.9160   -1.5830 O         1 <0>         0.0000
  27674 WAT       -34.1820  -70.9160   -1.3330 O         1 <0>         0.0000
  27675 WAT       -34.1820  -70.9160   -1.0830 O         1 <0>         0.0000
  27676 WAT       -34.1820  -70.9160   -0.8330 O         1 <0>         0.0000
  27677 WAT       -34.1820  -70.9160   -0.5830 O         1 <0>         0.0000
  27678 WAT       -34.1820  -70.9160   -0.3330 O         1 <0>         0.0000
  27679 WAT       -34.1820  -70.9160   -0.0830 O         1 <0>         0.0000
  27680 WAT       -34.1820  -70.6660   -9.8330 O         1 <0>         0.0000
  27681 WAT       -34.1820  -70.6660   -9.5830 O         1 <0>         0.0000
  27682 WAT       -34.1820  -70.6660   -9.3330 O         1 <0>         0.0000
  27683 WAT       -34.1820  -70.6660   -9.0830 O         1 <0>         0.0000
  27684 WAT       -34.1820  -70.6660   -8.8330 O         1 <0>         0.0000
  27685 WAT       -34.1820  -70.6660   -8.5830 O         1 <0>         0.0000
  27686 WAT       -34.1820  -70.6660   -8.3330 O         1 <0>         0.0000
  27687 WAT       -34.1820  -70.6660   -8.0830 O         1 <0>         0.0005
  27688 WAT       -34.1820  -70.6660   -7.8330 O         1 <0>         0.0019
  27689 WAT       -34.1820  -70.6660   -7.5830 O         1 <0>         0.0041
  27690 WAT       -34.1820  -70.6660   -7.3330 O         1 <0>         0.0055
  27691 WAT       -34.1820  -70.6660   -7.0830 O         1 <0>         0.0049
  27692 WAT       -34.1820  -70.6660   -6.8330 O         1 <0>         0.0033
  27693 WAT       -34.1820  -70.6660   -6.5830 O         1 <0>         0.0020
  27694 WAT       -34.1820  -70.6660   -6.3330 O         1 <0>         0.0011
  27695 WAT       -34.1820  -70.6660   -6.0830 O         1 <0>         0.0005
  27696 WAT       -34.1820  -70.6660   -5.8330 O         1 <0>         0.0001
  27697 WAT       -34.1820  -70.6660   -5.5830 O         1 <0>         0.0000
  27698 WAT       -34.1820  -70.6660   -5.3330 O         1 <0>         0.0000
  27699 WAT       -34.1820  -70.6660   -5.0830 O         1 <0>         0.0000
  27700 WAT       -34.1820  -70.6660   -4.8330 O         1 <0>         0.0000
  27701 WAT       -34.1820  -70.6660   -4.5830 O         1 <0>         0.0000
  27702 WAT       -34.1820  -70.6660   -4.3330 O         1 <0>         0.0000
  27703 WAT       -34.1820  -70.6660   -4.0830 O         1 <0>         0.0000
  27704 WAT       -34.1820  -70.6660   -3.8330 O         1 <0>         0.0000
  27705 WAT       -34.1820  -70.6660   -3.5830 O         1 <0>         0.0000
  27706 WAT       -34.1820  -70.6660   -3.3330 O         1 <0>         0.0000
  27707 WAT       -34.1820  -70.6660   -3.0830 O         1 <0>         0.0000
  27708 WAT       -34.1820  -70.6660   -2.8330 O         1 <0>         0.0000
  27709 WAT       -34.1820  -70.6660   -2.5830 O         1 <0>         0.0000
  27710 WAT       -34.1820  -70.6660   -2.3330 O         1 <0>         0.0000
  27711 WAT       -34.1820  -70.6660   -2.0830 O         1 <0>         0.0000
  27712 WAT       -34.1820  -70.6660   -1.8330 O         1 <0>         0.0000
  27713 WAT       -34.1820  -70.6660   -1.5830 O         1 <0>         0.0000
  27714 WAT       -34.1820  -70.6660   -1.3330 O         1 <0>         0.0000
  27715 WAT       -34.1820  -70.6660   -1.0830 O         1 <0>         0.0000
  27716 WAT       -34.1820  -70.6660   -0.8330 O         1 <0>         0.0000
  27717 WAT       -34.1820  -70.6660   -0.5830 O         1 <0>         0.0000
  27718 WAT       -34.1820  -70.6660   -0.3330 O         1 <0>         0.0000
  27719 WAT       -34.1820  -70.6660   -0.0830 O         1 <0>         0.0000
  27720 WAT       -34.1820  -70.4160   -9.8330 O         1 <0>         0.0000
  27721 WAT       -34.1820  -70.4160   -9.5830 O         1 <0>         0.0000
  27722 WAT       -34.1820  -70.4160   -9.3330 O         1 <0>         0.0000
  27723 WAT       -34.1820  -70.4160   -9.0830 O         1 <0>         0.0000
  27724 WAT       -34.1820  -70.4160   -8.8330 O         1 <0>         0.0000
  27725 WAT       -34.1820  -70.4160   -8.5830 O         1 <0>         0.0000
  27726 WAT       -34.1820  -70.4160   -8.3330 O         1 <0>         0.0000
  27727 WAT       -34.1820  -70.4160   -8.0830 O         1 <0>         0.0001
  27728 WAT       -34.1820  -70.4160   -7.8330 O         1 <0>         0.0005
  27729 WAT       -34.1820  -70.4160   -7.5830 O         1 <0>         0.0012
  27730 WAT       -34.1820  -70.4160   -7.3330 O         1 <0>         0.0021
  27731 WAT       -34.1820  -70.4160   -7.0830 O         1 <0>         0.0026
  27732 WAT       -34.1820  -70.4160   -6.8330 O         1 <0>         0.0026
  27733 WAT       -34.1820  -70.4160   -6.5830 O         1 <0>         0.0022
  27734 WAT       -34.1820  -70.4160   -6.3330 O         1 <0>         0.0014
  27735 WAT       -34.1820  -70.4160   -6.0830 O         1 <0>         0.0007
  27736 WAT       -34.1820  -70.4160   -5.8330 O         1 <0>         0.0002
  27737 WAT       -34.1820  -70.4160   -5.5830 O         1 <0>         0.0000
  27738 WAT       -34.1820  -70.4160   -5.3330 O         1 <0>         0.0000
  27739 WAT       -34.1820  -70.4160   -5.0830 O         1 <0>         0.0000
  27740 WAT       -34.1820  -70.4160   -4.8330 O         1 <0>         0.0000
  27741 WAT       -34.1820  -70.4160   -4.5830 O         1 <0>         0.0000
  27742 WAT       -34.1820  -70.4160   -4.3330 O         1 <0>         0.0000
  27743 WAT       -34.1820  -70.4160   -4.0830 O         1 <0>         0.0000
  27744 WAT       -34.1820  -70.4160   -3.8330 O         1 <0>         0.0000
  27745 WAT       -34.1820  -70.4160   -3.5830 O         1 <0>         0.0000
  27746 WAT       -34.1820  -70.4160   -3.3330 O         1 <0>         0.0000
  27747 WAT       -34.1820  -70.4160   -3.0830 O         1 <0>         0.0000
  27748 WAT       -34.1820  -70.4160   -2.8330 O         1 <0>         0.0000
  27749 WAT       -34.1820  -70.4160   -2.5830 O         1 <0>         0.0000
  27750 WAT       -34.1820  -70.4160   -2.3330 O         1 <0>         0.0000
  27751 WAT       -34.1820  -70.4160   -2.0830 O         1 <0>         0.0000
  27752 WAT       -34.1820  -70.4160   -1.8330 O         1 <0>         0.0000
  27753 WAT       -34.1820  -70.4160   -1.5830 O         1 <0>         0.0000
  27754 WAT       -34.1820  -70.4160   -1.3330 O         1 <0>         0.0000
  27755 WAT       -34.1820  -70.4160   -1.0830 O         1 <0>         0.0000
  27756 WAT       -34.1820  -70.4160   -0.8330 O         1 <0>         0.0000
  27757 WAT       -34.1820  -70.4160   -0.5830 O         1 <0>         0.0000
  27758 WAT       -34.1820  -70.4160   -0.3330 O         1 <0>         0.0000
  27759 WAT       -34.1820  -70.4160   -0.0830 O         1 <0>         0.0000
  27760 WAT       -34.1820  -70.1660   -9.8330 O         1 <0>         0.0000
  27761 WAT       -34.1820  -70.1660   -9.5830 O         1 <0>         0.0000
  27762 WAT       -34.1820  -70.1660   -9.3330 O         1 <0>         0.0000
  27763 WAT       -34.1820  -70.1660   -9.0830 O         1 <0>         0.0000
  27764 WAT       -34.1820  -70.1660   -8.8330 O         1 <0>         0.0000
  27765 WAT       -34.1820  -70.1660   -8.5830 O         1 <0>         0.0000
  27766 WAT       -34.1820  -70.1660   -8.3330 O         1 <0>         0.0000
  27767 WAT       -34.1820  -70.1660   -8.0830 O         1 <0>         0.0000
  27768 WAT       -34.1820  -70.1660   -7.8330 O         1 <0>         0.0001
  27769 WAT       -34.1820  -70.1660   -7.5830 O         1 <0>         0.0004
  27770 WAT       -34.1820  -70.1660   -7.3330 O         1 <0>         0.0010
  27771 WAT       -34.1820  -70.1660   -7.0830 O         1 <0>         0.0015
  27772 WAT       -34.1820  -70.1660   -6.8330 O         1 <0>         0.0017
  27773 WAT       -34.1820  -70.1660   -6.5830 O         1 <0>         0.0017
  27774 WAT       -34.1820  -70.1660   -6.3330 O         1 <0>         0.0013
  27775 WAT       -34.1820  -70.1660   -6.0830 O         1 <0>         0.0006
  27776 WAT       -34.1820  -70.1660   -5.8330 O         1 <0>         0.0002
  27777 WAT       -34.1820  -70.1660   -5.5830 O         1 <0>         0.0000
  27778 WAT       -34.1820  -70.1660   -5.3330 O         1 <0>         0.0000
  27779 WAT       -34.1820  -70.1660   -5.0830 O         1 <0>         0.0000
  27780 WAT       -34.1820  -70.1660   -4.8330 O         1 <0>         0.0000
  27781 WAT       -34.1820  -70.1660   -4.5830 O         1 <0>         0.0000
  27782 WAT       -34.1820  -70.1660   -4.3330 O         1 <0>         0.0000
  27783 WAT       -34.1820  -70.1660   -4.0830 O         1 <0>         0.0000
  27784 WAT       -34.1820  -70.1660   -3.8330 O         1 <0>         0.0000
  27785 WAT       -34.1820  -70.1660   -3.5830 O         1 <0>         0.0000
  27786 WAT       -34.1820  -70.1660   -3.3330 O         1 <0>         0.0000
  27787 WAT       -34.1820  -70.1660   -3.0830 O         1 <0>         0.0000
  27788 WAT       -34.1820  -70.1660   -2.8330 O         1 <0>         0.0000
  27789 WAT       -34.1820  -70.1660   -2.5830 O         1 <0>         0.0000
  27790 WAT       -34.1820  -70.1660   -2.3330 O         1 <0>         0.0000
  27791 WAT       -34.1820  -70.1660   -2.0830 O         1 <0>         0.0000
  27792 WAT       -34.1820  -70.1660   -1.8330 O         1 <0>         0.0000
  27793 WAT       -34.1820  -70.1660   -1.5830 O         1 <0>         0.0000
  27794 WAT       -34.1820  -70.1660   -1.3330 O         1 <0>         0.0000
  27795 WAT       -34.1820  -70.1660   -1.0830 O         1 <0>         0.0000
  27796 WAT       -34.1820  -70.1660   -0.8330 O         1 <0>         0.0000
  27797 WAT       -34.1820  -70.1660   -0.5830 O         1 <0>         0.0000
  27798 WAT       -34.1820  -70.1660   -0.3330 O         1 <0>         0.0000
  27799 WAT       -34.1820  -70.1660   -0.0830 O         1 <0>         0.0000
  27800 WAT       -34.1820  -69.9160   -9.8330 O         1 <0>         0.0000
  27801 WAT       -34.1820  -69.9160   -9.5830 O         1 <0>         0.0000
  27802 WAT       -34.1820  -69.9160   -9.3330 O         1 <0>         0.0000
  27803 WAT       -34.1820  -69.9160   -9.0830 O         1 <0>         0.0000
  27804 WAT       -34.1820  -69.9160   -8.8330 O         1 <0>         0.0000
  27805 WAT       -34.1820  -69.9160   -8.5830 O         1 <0>         0.0000
  27806 WAT       -34.1820  -69.9160   -8.3330 O         1 <0>         0.0000
  27807 WAT       -34.1820  -69.9160   -8.0830 O         1 <0>         0.0000
  27808 WAT       -34.1820  -69.9160   -7.8330 O         1 <0>         0.0000
  27809 WAT       -34.1820  -69.9160   -7.5830 O         1 <0>         0.0001
  27810 WAT       -34.1820  -69.9160   -7.3330 O         1 <0>         0.0004
  27811 WAT       -34.1820  -69.9160   -7.0830 O         1 <0>         0.0006
  27812 WAT       -34.1820  -69.9160   -6.8330 O         1 <0>         0.0008
  27813 WAT       -34.1820  -69.9160   -6.5830 O         1 <0>         0.0008
  27814 WAT       -34.1820  -69.9160   -6.3330 O         1 <0>         0.0006
  27815 WAT       -34.1820  -69.9160   -6.0830 O         1 <0>         0.0003
  27816 WAT       -34.1820  -69.9160   -5.8330 O         1 <0>         0.0001
  27817 WAT       -34.1820  -69.9160   -5.5830 O         1 <0>         0.0000
  27818 WAT       -34.1820  -69.9160   -5.3330 O         1 <0>         0.0000
  27819 WAT       -34.1820  -69.9160   -5.0830 O         1 <0>         0.0000
  27820 WAT       -34.1820  -69.9160   -4.8330 O         1 <0>         0.0000
  27821 WAT       -34.1820  -69.9160   -4.5830 O         1 <0>         0.0000
  27822 WAT       -34.1820  -69.9160   -4.3330 O         1 <0>         0.0000
  27823 WAT       -34.1820  -69.9160   -4.0830 O         1 <0>         0.0000
  27824 WAT       -34.1820  -69.9160   -3.8330 O         1 <0>         0.0000
  27825 WAT       -34.1820  -69.9160   -3.5830 O         1 <0>         0.0000
  27826 WAT       -34.1820  -69.9160   -3.3330 O         1 <0>         0.0000
  27827 WAT       -34.1820  -69.9160   -3.0830 O         1 <0>         0.0000
  27828 WAT       -34.1820  -69.9160   -2.8330 O         1 <0>         0.0000
  27829 WAT       -34.1820  -69.9160   -2.5830 O         1 <0>         0.0000
  27830 WAT       -34.1820  -69.9160   -2.3330 O         1 <0>         0.0000
  27831 WAT       -34.1820  -69.9160   -2.0830 O         1 <0>         0.0000
  27832 WAT       -34.1820  -69.9160   -1.8330 O         1 <0>         0.0000
  27833 WAT       -34.1820  -69.9160   -1.5830 O         1 <0>         0.0000
  27834 WAT       -34.1820  -69.9160   -1.3330 O         1 <0>         0.0000
  27835 WAT       -34.1820  -69.9160   -1.0830 O         1 <0>         0.0000
  27836 WAT       -34.1820  -69.9160   -0.8330 O         1 <0>         0.0000
  27837 WAT       -34.1820  -69.9160   -0.5830 O         1 <0>         0.0000
  27838 WAT       -34.1820  -69.9160   -0.3330 O         1 <0>         0.0000
  27839 WAT       -34.1820  -69.9160   -0.0830 O         1 <0>         0.0000
  27840 WAT       -34.1820  -69.6660   -9.8330 O         1 <0>         0.0000
  27841 WAT       -34.1820  -69.6660   -9.5830 O         1 <0>         0.0000
  27842 WAT       -34.1820  -69.6660   -9.3330 O         1 <0>         0.0000
  27843 WAT       -34.1820  -69.6660   -9.0830 O         1 <0>         0.0000
  27844 WAT       -34.1820  -69.6660   -8.8330 O         1 <0>         0.0000
  27845 WAT       -34.1820  -69.6660   -8.5830 O         1 <0>         0.0000
  27846 WAT       -34.1820  -69.6660   -8.3330 O         1 <0>         0.0000
  27847 WAT       -34.1820  -69.6660   -8.0830 O         1 <0>         0.0000
  27848 WAT       -34.1820  -69.6660   -7.8330 O         1 <0>         0.0000
  27849 WAT       -34.1820  -69.6660   -7.5830 O         1 <0>         0.0000
  27850 WAT       -34.1820  -69.6660   -7.3330 O         1 <0>         0.0001
  27851 WAT       -34.1820  -69.6660   -7.0830 O         1 <0>         0.0001
  27852 WAT       -34.1820  -69.6660   -6.8330 O         1 <0>         0.0002
  27853 WAT       -34.1820  -69.6660   -6.5830 O         1 <0>         0.0002
  27854 WAT       -34.1820  -69.6660   -6.3330 O         1 <0>         0.0002
  27855 WAT       -34.1820  -69.6660   -6.0830 O         1 <0>         0.0001
  27856 WAT       -34.1820  -69.6660   -5.8330 O         1 <0>         0.0000
  27857 WAT       -34.1820  -69.6660   -5.5830 O         1 <0>         0.0000
  27858 WAT       -34.1820  -69.6660   -5.3330 O         1 <0>         0.0000
  27859 WAT       -34.1820  -69.6660   -5.0830 O         1 <0>         0.0000
  27860 WAT       -34.1820  -69.6660   -4.8330 O         1 <0>         0.0000
  27861 WAT       -34.1820  -69.6660   -4.5830 O         1 <0>         0.0000
  27862 WAT       -34.1820  -69.6660   -4.3330 O         1 <0>         0.0000
  27863 WAT       -34.1820  -69.6660   -4.0830 O         1 <0>         0.0000
  27864 WAT       -34.1820  -69.6660   -3.8330 O         1 <0>         0.0000
  27865 WAT       -34.1820  -69.6660   -3.5830 O         1 <0>         0.0000
  27866 WAT       -34.1820  -69.6660   -3.3330 O         1 <0>         0.0000
  27867 WAT       -34.1820  -69.6660   -3.0830 O         1 <0>         0.0000
  27868 WAT       -34.1820  -69.6660   -2.8330 O         1 <0>         0.0000
  27869 WAT       -34.1820  -69.6660   -2.5830 O         1 <0>         0.0000
  27870 WAT       -34.1820  -69.6660   -2.3330 O         1 <0>         0.0000
  27871 WAT       -34.1820  -69.6660   -2.0830 O         1 <0>         0.0000
  27872 WAT       -34.1820  -69.6660   -1.8330 O         1 <0>         0.0000
  27873 WAT       -34.1820  -69.6660   -1.5830 O         1 <0>         0.0000
  27874 WAT       -34.1820  -69.6660   -1.3330 O         1 <0>         0.0000
  27875 WAT       -34.1820  -69.6660   -1.0830 O         1 <0>         0.0000
  27876 WAT       -34.1820  -69.6660   -0.8330 O         1 <0>         0.0000
  27877 WAT       -34.1820  -69.6660   -0.5830 O         1 <0>         0.0000
  27878 WAT       -34.1820  -69.6660   -0.3330 O         1 <0>         0.0000
  27879 WAT       -34.1820  -69.6660   -0.0830 O         1 <0>         0.0000
  27880 WAT       -34.1820  -69.4160   -9.8330 O         1 <0>         0.0000
  27881 WAT       -34.1820  -69.4160   -9.5830 O         1 <0>         0.0000
  27882 WAT       -34.1820  -69.4160   -9.3330 O         1 <0>         0.0000
  27883 WAT       -34.1820  -69.4160   -9.0830 O         1 <0>         0.0000
  27884 WAT       -34.1820  -69.4160   -8.8330 O         1 <0>         0.0000
  27885 WAT       -34.1820  -69.4160   -8.5830 O         1 <0>         0.0000
  27886 WAT       -34.1820  -69.4160   -8.3330 O         1 <0>         0.0000
  27887 WAT       -34.1820  -69.4160   -8.0830 O         1 <0>         0.0000
  27888 WAT       -34.1820  -69.4160   -7.8330 O         1 <0>         0.0000
  27889 WAT       -34.1820  -69.4160   -7.5830 O         1 <0>         0.0000
  27890 WAT       -34.1820  -69.4160   -7.3330 O         1 <0>         0.0000
  27891 WAT       -34.1820  -69.4160   -7.0830 O         1 <0>         0.0000
  27892 WAT       -34.1820  -69.4160   -6.8330 O         1 <0>         0.0000
  27893 WAT       -34.1820  -69.4160   -6.5830 O         1 <0>         0.0000
  27894 WAT       -34.1820  -69.4160   -6.3330 O         1 <0>         0.0000
  27895 WAT       -34.1820  -69.4160   -6.0830 O         1 <0>         0.0000
  27896 WAT       -34.1820  -69.4160   -5.8330 O         1 <0>         0.0000
  27897 WAT       -34.1820  -69.4160   -5.5830 O         1 <0>         0.0000
  27898 WAT       -34.1820  -69.4160   -5.3330 O         1 <0>         0.0000
  27899 WAT       -34.1820  -69.4160   -5.0830 O         1 <0>         0.0000
  27900 WAT       -34.1820  -69.4160   -4.8330 O         1 <0>         0.0000
  27901 WAT       -34.1820  -69.4160   -4.5830 O         1 <0>         0.0000
  27902 WAT       -34.1820  -69.4160   -4.3330 O         1 <0>         0.0000
  27903 WAT       -34.1820  -69.4160   -4.0830 O         1 <0>         0.0000
  27904 WAT       -34.1820  -69.4160   -3.8330 O         1 <0>         0.0000
  27905 WAT       -34.1820  -69.4160   -3.5830 O         1 <0>         0.0000
  27906 WAT       -34.1820  -69.4160   -3.3330 O         1 <0>         0.0000
  27907 WAT       -34.1820  -69.4160   -3.0830 O         1 <0>         0.0000
  27908 WAT       -34.1820  -69.4160   -2.8330 O         1 <0>         0.0000
  27909 WAT       -34.1820  -69.4160   -2.5830 O         1 <0>         0.0000
  27910 WAT       -34.1820  -69.4160   -2.3330 O         1 <0>         0.0000
  27911 WAT       -34.1820  -69.4160   -2.0830 O         1 <0>         0.0000
  27912 WAT       -34.1820  -69.4160   -1.8330 O         1 <0>         0.0000
  27913 WAT       -34.1820  -69.4160   -1.5830 O         1 <0>         0.0000
  27914 WAT       -34.1820  -69.4160   -1.3330 O         1 <0>         0.0000
  27915 WAT       -34.1820  -69.4160   -1.0830 O         1 <0>         0.0000
  27916 WAT       -34.1820  -69.4160   -0.8330 O         1 <0>         0.0000
  27917 WAT       -34.1820  -69.4160   -0.5830 O         1 <0>         0.0000
  27918 WAT       -34.1820  -69.4160   -0.3330 O         1 <0>         0.0000
  27919 WAT       -34.1820  -69.4160   -0.0830 O         1 <0>         0.0000
  27920 WAT       -34.1820  -69.1660   -9.8330 O         1 <0>         0.0000
  27921 WAT       -34.1820  -69.1660   -9.5830 O         1 <0>         0.0000
  27922 WAT       -34.1820  -69.1660   -9.3330 O         1 <0>         0.0000
  27923 WAT       -34.1820  -69.1660   -9.0830 O         1 <0>         0.0000
  27924 WAT       -34.1820  -69.1660   -8.8330 O         1 <0>         0.0000
  27925 WAT       -34.1820  -69.1660   -8.5830 O         1 <0>         0.0000
  27926 WAT       -34.1820  -69.1660   -8.3330 O         1 <0>         0.0000
  27927 WAT       -34.1820  -69.1660   -8.0830 O         1 <0>         0.0000
  27928 WAT       -34.1820  -69.1660   -7.8330 O         1 <0>         0.0000
  27929 WAT       -34.1820  -69.1660   -7.5830 O         1 <0>         0.0000
  27930 WAT       -34.1820  -69.1660   -7.3330 O         1 <0>         0.0000
  27931 WAT       -34.1820  -69.1660   -7.0830 O         1 <0>         0.0000
  27932 WAT       -34.1820  -69.1660   -6.8330 O         1 <0>         0.0000
  27933 WAT       -34.1820  -69.1660   -6.5830 O         1 <0>         0.0000
  27934 WAT       -34.1820  -69.1660   -6.3330 O         1 <0>         0.0000
  27935 WAT       -34.1820  -69.1660   -6.0830 O         1 <0>         0.0000
  27936 WAT       -34.1820  -69.1660   -5.8330 O         1 <0>         0.0000
  27937 WAT       -34.1820  -69.1660   -5.5830 O         1 <0>         0.0000
  27938 WAT       -34.1820  -69.1660   -5.3330 O         1 <0>         0.0000
  27939 WAT       -34.1820  -69.1660   -5.0830 O         1 <0>         0.0000
  27940 WAT       -34.1820  -69.1660   -4.8330 O         1 <0>         0.0000
  27941 WAT       -34.1820  -69.1660   -4.5830 O         1 <0>         0.0000
  27942 WAT       -34.1820  -69.1660   -4.3330 O         1 <0>         0.0000
  27943 WAT       -34.1820  -69.1660   -4.0830 O         1 <0>         0.0000
  27944 WAT       -34.1820  -69.1660   -3.8330 O         1 <0>         0.0000
  27945 WAT       -34.1820  -69.1660   -3.5830 O         1 <0>         0.0000
  27946 WAT       -34.1820  -69.1660   -3.3330 O         1 <0>         0.0000
  27947 WAT       -34.1820  -69.1660   -3.0830 O         1 <0>         0.0000
  27948 WAT       -34.1820  -69.1660   -2.8330 O         1 <0>         0.0000
  27949 WAT       -34.1820  -69.1660   -2.5830 O         1 <0>         0.0000
  27950 WAT       -34.1820  -69.1660   -2.3330 O         1 <0>         0.0000
  27951 WAT       -34.1820  -69.1660   -2.0830 O         1 <0>         0.0000
  27952 WAT       -34.1820  -69.1660   -1.8330 O         1 <0>         0.0000
  27953 WAT       -34.1820  -69.1660   -1.5830 O         1 <0>         0.0000
  27954 WAT       -34.1820  -69.1660   -1.3330 O         1 <0>         0.0000
  27955 WAT       -34.1820  -69.1660   -1.0830 O         1 <0>         0.0000
  27956 WAT       -34.1820  -69.1660   -0.8330 O         1 <0>         0.0000
  27957 WAT       -34.1820  -69.1660   -0.5830 O         1 <0>         0.0000
  27958 WAT       -34.1820  -69.1660   -0.3330 O         1 <0>         0.0000
  27959 WAT       -34.1820  -69.1660   -0.0830 O         1 <0>         0.0000
  27960 WAT       -34.1820  -68.9160   -9.8330 O         1 <0>         0.0000
  27961 WAT       -34.1820  -68.9160   -9.5830 O         1 <0>         0.0000
  27962 WAT       -34.1820  -68.9160   -9.3330 O         1 <0>         0.0000
  27963 WAT       -34.1820  -68.9160   -9.0830 O         1 <0>         0.0000
  27964 WAT       -34.1820  -68.9160   -8.8330 O         1 <0>         0.0000
  27965 WAT       -34.1820  -68.9160   -8.5830 O         1 <0>         0.0000
  27966 WAT       -34.1820  -68.9160   -8.3330 O         1 <0>         0.0000
  27967 WAT       -34.1820  -68.9160   -8.0830 O         1 <0>         0.0000
  27968 WAT       -34.1820  -68.9160   -7.8330 O         1 <0>         0.0000
  27969 WAT       -34.1820  -68.9160   -7.5830 O         1 <0>         0.0000
  27970 WAT       -34.1820  -68.9160   -7.3330 O         1 <0>         0.0000
  27971 WAT       -34.1820  -68.9160   -7.0830 O         1 <0>         0.0000
  27972 WAT       -34.1820  -68.9160   -6.8330 O         1 <0>         0.0000
  27973 WAT       -34.1820  -68.9160   -6.5830 O         1 <0>         0.0000
  27974 WAT       -34.1820  -68.9160   -6.3330 O         1 <0>         0.0000
  27975 WAT       -34.1820  -68.9160   -6.0830 O         1 <0>         0.0000
  27976 WAT       -34.1820  -68.9160   -5.8330 O         1 <0>         0.0000
  27977 WAT       -34.1820  -68.9160   -5.5830 O         1 <0>         0.0000
  27978 WAT       -34.1820  -68.9160   -5.3330 O         1 <0>         0.0000
  27979 WAT       -34.1820  -68.9160   -5.0830 O         1 <0>         0.0000
  27980 WAT       -34.1820  -68.9160   -4.8330 O         1 <0>         0.0000
  27981 WAT       -34.1820  -68.9160   -4.5830 O         1 <0>         0.0000
  27982 WAT       -34.1820  -68.9160   -4.3330 O         1 <0>         0.0000
  27983 WAT       -34.1820  -68.9160   -4.0830 O         1 <0>         0.0000
  27984 WAT       -34.1820  -68.9160   -3.8330 O         1 <0>         0.0000
  27985 WAT       -34.1820  -68.9160   -3.5830 O         1 <0>         0.0000
  27986 WAT       -34.1820  -68.9160   -3.3330 O         1 <0>         0.0000
  27987 WAT       -34.1820  -68.9160   -3.0830 O         1 <0>         0.0000
  27988 WAT       -34.1820  -68.9160   -2.8330 O         1 <0>         0.0000
  27989 WAT       -34.1820  -68.9160   -2.5830 O         1 <0>         0.0000
  27990 WAT       -34.1820  -68.9160   -2.3330 O         1 <0>         0.0000
  27991 WAT       -34.1820  -68.9160   -2.0830 O         1 <0>         0.0000
  27992 WAT       -34.1820  -68.9160   -1.8330 O         1 <0>         0.0000
  27993 WAT       -34.1820  -68.9160   -1.5830 O         1 <0>         0.0000
  27994 WAT       -34.1820  -68.9160   -1.3330 O         1 <0>         0.0000
  27995 WAT       -34.1820  -68.9160   -1.0830 O         1 <0>         0.0000
  27996 WAT       -34.1820  -68.9160   -0.8330 O         1 <0>         0.0000
  27997 WAT       -34.1820  -68.9160   -0.5830 O         1 <0>         0.0000
  27998 WAT       -34.1820  -68.9160   -0.3330 O         1 <0>         0.0000
  27999 WAT       -34.1820  -68.9160   -0.0830 O         1 <0>         0.0000
  28000 WAT       -33.9320  -77.4160   -9.8330 O         1 <0>         0.0000
  28001 WAT       -33.9320  -77.4160   -9.5830 O         1 <0>         0.0000
  28002 WAT       -33.9320  -77.4160   -9.3330 O         1 <0>         0.0000
  28003 WAT       -33.9320  -77.4160   -9.0830 O         1 <0>         0.0000
  28004 WAT       -33.9320  -77.4160   -8.8330 O         1 <0>         0.0000
  28005 WAT       -33.9320  -77.4160   -8.5830 O         1 <0>         0.0000
  28006 WAT       -33.9320  -77.4160   -8.3330 O         1 <0>         0.0000
  28007 WAT       -33.9320  -77.4160   -8.0830 O         1 <0>         0.0000
  28008 WAT       -33.9320  -77.4160   -7.8330 O         1 <0>         0.0000
  28009 WAT       -33.9320  -77.4160   -7.5830 O         1 <0>         0.0000
  28010 WAT       -33.9320  -77.4160   -7.3330 O         1 <0>         0.0000
  28011 WAT       -33.9320  -77.4160   -7.0830 O         1 <0>         0.0000
  28012 WAT       -33.9320  -77.4160   -6.8330 O         1 <0>         0.0000
  28013 WAT       -33.9320  -77.4160   -6.5830 O         1 <0>         0.0000
  28014 WAT       -33.9320  -77.4160   -6.3330 O         1 <0>         0.0000
  28015 WAT       -33.9320  -77.4160   -6.0830 O         1 <0>         0.0000
  28016 WAT       -33.9320  -77.4160   -5.8330 O         1 <0>         0.0000
  28017 WAT       -33.9320  -77.4160   -5.5830 O         1 <0>         0.0000
  28018 WAT       -33.9320  -77.4160   -5.3330 O         1 <0>         0.0000
  28019 WAT       -33.9320  -77.4160   -5.0830 O         1 <0>         0.0000
  28020 WAT       -33.9320  -77.4160   -4.8330 O         1 <0>         0.0000
  28021 WAT       -33.9320  -77.4160   -4.5830 O         1 <0>         0.0000
  28022 WAT       -33.9320  -77.4160   -4.3330 O         1 <0>         0.0000
  28023 WAT       -33.9320  -77.4160   -4.0830 O         1 <0>         0.0000
  28024 WAT       -33.9320  -77.4160   -3.8330 O         1 <0>         0.0000
  28025 WAT       -33.9320  -77.4160   -3.5830 O         1 <0>         0.0000
  28026 WAT       -33.9320  -77.4160   -3.3330 O         1 <0>         0.0000
  28027 WAT       -33.9320  -77.4160   -3.0830 O         1 <0>         0.0000
  28028 WAT       -33.9320  -77.4160   -2.8330 O         1 <0>         0.0000
  28029 WAT       -33.9320  -77.4160   -2.5830 O         1 <0>         0.0000
  28030 WAT       -33.9320  -77.4160   -2.3330 O         1 <0>         0.0000
  28031 WAT       -33.9320  -77.4160   -2.0830 O         1 <0>         0.0000
  28032 WAT       -33.9320  -77.4160   -1.8330 O         1 <0>         0.0000
  28033 WAT       -33.9320  -77.4160   -1.5830 O         1 <0>         0.0000
  28034 WAT       -33.9320  -77.4160   -1.3330 O         1 <0>         0.0000
  28035 WAT       -33.9320  -77.4160   -1.0830 O         1 <0>         0.0000
  28036 WAT       -33.9320  -77.4160   -0.8330 O         1 <0>         0.0000
  28037 WAT       -33.9320  -77.4160   -0.5830 O         1 <0>         0.0000
  28038 WAT       -33.9320  -77.4160   -0.3330 O         1 <0>         0.0000
  28039 WAT       -33.9320  -77.4160   -0.0830 O         1 <0>         0.0000
  28040 WAT       -33.9320  -77.1660   -9.8330 O         1 <0>         0.0000
  28041 WAT       -33.9320  -77.1660   -9.5830 O         1 <0>         0.0000
  28042 WAT       -33.9320  -77.1660   -9.3330 O         1 <0>         0.0000
  28043 WAT       -33.9320  -77.1660   -9.0830 O         1 <0>         0.0000
  28044 WAT       -33.9320  -77.1660   -8.8330 O         1 <0>         0.0000
  28045 WAT       -33.9320  -77.1660   -8.5830 O         1 <0>         0.0000
  28046 WAT       -33.9320  -77.1660   -8.3330 O         1 <0>         0.0000
  28047 WAT       -33.9320  -77.1660   -8.0830 O         1 <0>         0.0000
  28048 WAT       -33.9320  -77.1660   -7.8330 O         1 <0>         0.0000
  28049 WAT       -33.9320  -77.1660   -7.5830 O         1 <0>         0.0000
  28050 WAT       -33.9320  -77.1660   -7.3330 O         1 <0>         0.0000
  28051 WAT       -33.9320  -77.1660   -7.0830 O         1 <0>         0.0000
  28052 WAT       -33.9320  -77.1660   -6.8330 O         1 <0>         0.0000
  28053 WAT       -33.9320  -77.1660   -6.5830 O         1 <0>         0.0000
  28054 WAT       -33.9320  -77.1660   -6.3330 O         1 <0>         0.0000
  28055 WAT       -33.9320  -77.1660   -6.0830 O         1 <0>         0.0000
  28056 WAT       -33.9320  -77.1660   -5.8330 O         1 <0>         0.0000
  28057 WAT       -33.9320  -77.1660   -5.5830 O         1 <0>         0.0000
  28058 WAT       -33.9320  -77.1660   -5.3330 O         1 <0>         0.0000
  28059 WAT       -33.9320  -77.1660   -5.0830 O         1 <0>         0.0000
  28060 WAT       -33.9320  -77.1660   -4.8330 O         1 <0>         0.0000
  28061 WAT       -33.9320  -77.1660   -4.5830 O         1 <0>         0.0000
  28062 WAT       -33.9320  -77.1660   -4.3330 O         1 <0>         0.0000
  28063 WAT       -33.9320  -77.1660   -4.0830 O         1 <0>         0.0000
  28064 WAT       -33.9320  -77.1660   -3.8330 O         1 <0>         0.0000
  28065 WAT       -33.9320  -77.1660   -3.5830 O         1 <0>         0.0000
  28066 WAT       -33.9320  -77.1660   -3.3330 O         1 <0>         0.0000
  28067 WAT       -33.9320  -77.1660   -3.0830 O         1 <0>         0.0000
  28068 WAT       -33.9320  -77.1660   -2.8330 O         1 <0>         0.0000
  28069 WAT       -33.9320  -77.1660   -2.5830 O         1 <0>         0.0000
  28070 WAT       -33.9320  -77.1660   -2.3330 O         1 <0>         0.0000
  28071 WAT       -33.9320  -77.1660   -2.0830 O         1 <0>         0.0000
  28072 WAT       -33.9320  -77.1660   -1.8330 O         1 <0>         0.0000
  28073 WAT       -33.9320  -77.1660   -1.5830 O         1 <0>         0.0000
  28074 WAT       -33.9320  -77.1660   -1.3330 O         1 <0>         0.0000
  28075 WAT       -33.9320  -77.1660   -1.0830 O         1 <0>         0.0000
  28076 WAT       -33.9320  -77.1660   -0.8330 O         1 <0>         0.0000
  28077 WAT       -33.9320  -77.1660   -0.5830 O         1 <0>         0.0000
  28078 WAT       -33.9320  -77.1660   -0.3330 O         1 <0>         0.0000
  28079 WAT       -33.9320  -77.1660   -0.0830 O         1 <0>         0.0000
  28080 WAT       -33.9320  -76.9160   -9.8330 O         1 <0>         0.0000
  28081 WAT       -33.9320  -76.9160   -9.5830 O         1 <0>         0.0000
  28082 WAT       -33.9320  -76.9160   -9.3330 O         1 <0>         0.0000
  28083 WAT       -33.9320  -76.9160   -9.0830 O         1 <0>         0.0000
  28084 WAT       -33.9320  -76.9160   -8.8330 O         1 <0>         0.0000
  28085 WAT       -33.9320  -76.9160   -8.5830 O         1 <0>         0.0000
  28086 WAT       -33.9320  -76.9160   -8.3330 O         1 <0>         0.0000
  28087 WAT       -33.9320  -76.9160   -8.0830 O         1 <0>         0.0000
  28088 WAT       -33.9320  -76.9160   -7.8330 O         1 <0>         0.0000
  28089 WAT       -33.9320  -76.9160   -7.5830 O         1 <0>         0.0000
  28090 WAT       -33.9320  -76.9160   -7.3330 O         1 <0>         0.0000
  28091 WAT       -33.9320  -76.9160   -7.0830 O         1 <0>         0.0000
  28092 WAT       -33.9320  -76.9160   -6.8330 O         1 <0>         0.0000
  28093 WAT       -33.9320  -76.9160   -6.5830 O         1 <0>         0.0000
  28094 WAT       -33.9320  -76.9160   -6.3330 O         1 <0>         0.0000
  28095 WAT       -33.9320  -76.9160   -6.0830 O         1 <0>         0.0000
  28096 WAT       -33.9320  -76.9160   -5.8330 O         1 <0>         0.0000
  28097 WAT       -33.9320  -76.9160   -5.5830 O         1 <0>         0.0000
  28098 WAT       -33.9320  -76.9160   -5.3330 O         1 <0>         0.0000
  28099 WAT       -33.9320  -76.9160   -5.0830 O         1 <0>         0.0000
  28100 WAT       -33.9320  -76.9160   -4.8330 O         1 <0>         0.0000
  28101 WAT       -33.9320  -76.9160   -4.5830 O         1 <0>         0.0000
  28102 WAT       -33.9320  -76.9160   -4.3330 O         1 <0>         0.0000
  28103 WAT       -33.9320  -76.9160   -4.0830 O         1 <0>         0.0000
  28104 WAT       -33.9320  -76.9160   -3.8330 O         1 <0>         0.0000
  28105 WAT       -33.9320  -76.9160   -3.5830 O         1 <0>         0.0000
  28106 WAT       -33.9320  -76.9160   -3.3330 O         1 <0>         0.0000
  28107 WAT       -33.9320  -76.9160   -3.0830 O         1 <0>         0.0000
  28108 WAT       -33.9320  -76.9160   -2.8330 O         1 <0>         0.0000
  28109 WAT       -33.9320  -76.9160   -2.5830 O         1 <0>         0.0000
  28110 WAT       -33.9320  -76.9160   -2.3330 O         1 <0>         0.0000
  28111 WAT       -33.9320  -76.9160   -2.0830 O         1 <0>         0.0000
  28112 WAT       -33.9320  -76.9160   -1.8330 O         1 <0>         0.0000
  28113 WAT       -33.9320  -76.9160   -1.5830 O         1 <0>         0.0000
  28114 WAT       -33.9320  -76.9160   -1.3330 O         1 <0>         0.0000
  28115 WAT       -33.9320  -76.9160   -1.0830 O         1 <0>         0.0000
  28116 WAT       -33.9320  -76.9160   -0.8330 O         1 <0>         0.0000
  28117 WAT       -33.9320  -76.9160   -0.5830 O         1 <0>         0.0000
  28118 WAT       -33.9320  -76.9160   -0.3330 O         1 <0>         0.0000
  28119 WAT       -33.9320  -76.9160   -0.0830 O         1 <0>         0.0000
  28120 WAT       -33.9320  -76.6660   -9.8330 O         1 <0>         0.0000
  28121 WAT       -33.9320  -76.6660   -9.5830 O         1 <0>         0.0000
  28122 WAT       -33.9320  -76.6660   -9.3330 O         1 <0>         0.0000
  28123 WAT       -33.9320  -76.6660   -9.0830 O         1 <0>         0.0000
  28124 WAT       -33.9320  -76.6660   -8.8330 O         1 <0>         0.0000
  28125 WAT       -33.9320  -76.6660   -8.5830 O         1 <0>         0.0000
  28126 WAT       -33.9320  -76.6660   -8.3330 O         1 <0>         0.0000
  28127 WAT       -33.9320  -76.6660   -8.0830 O         1 <0>         0.0000
  28128 WAT       -33.9320  -76.6660   -7.8330 O         1 <0>         0.0000
  28129 WAT       -33.9320  -76.6660   -7.5830 O         1 <0>         0.0000
  28130 WAT       -33.9320  -76.6660   -7.3330 O         1 <0>         0.0000
  28131 WAT       -33.9320  -76.6660   -7.0830 O         1 <0>         0.0000
  28132 WAT       -33.9320  -76.6660   -6.8330 O         1 <0>         0.0000
  28133 WAT       -33.9320  -76.6660   -6.5830 O         1 <0>         0.0000
  28134 WAT       -33.9320  -76.6660   -6.3330 O         1 <0>         0.0000
  28135 WAT       -33.9320  -76.6660   -6.0830 O         1 <0>         0.0000
  28136 WAT       -33.9320  -76.6660   -5.8330 O         1 <0>         0.0000
  28137 WAT       -33.9320  -76.6660   -5.5830 O         1 <0>         0.0000
  28138 WAT       -33.9320  -76.6660   -5.3330 O         1 <0>         0.0000
  28139 WAT       -33.9320  -76.6660   -5.0830 O         1 <0>         0.0000
  28140 WAT       -33.9320  -76.6660   -4.8330 O         1 <0>         0.0000
  28141 WAT       -33.9320  -76.6660   -4.5830 O         1 <0>         0.0000
  28142 WAT       -33.9320  -76.6660   -4.3330 O         1 <0>         0.0000
  28143 WAT       -33.9320  -76.6660   -4.0830 O         1 <0>         0.0000
  28144 WAT       -33.9320  -76.6660   -3.8330 O         1 <0>         0.0000
  28145 WAT       -33.9320  -76.6660   -3.5830 O         1 <0>         0.0000
  28146 WAT       -33.9320  -76.6660   -3.3330 O         1 <0>         0.0000
  28147 WAT       -33.9320  -76.6660   -3.0830 O         1 <0>         0.0000
  28148 WAT       -33.9320  -76.6660   -2.8330 O         1 <0>         0.0000
  28149 WAT       -33.9320  -76.6660   -2.5830 O         1 <0>         0.0000
  28150 WAT       -33.9320  -76.6660   -2.3330 O         1 <0>         0.0000
  28151 WAT       -33.9320  -76.6660   -2.0830 O         1 <0>         0.0000
  28152 WAT       -33.9320  -76.6660   -1.8330 O         1 <0>         0.0000
  28153 WAT       -33.9320  -76.6660   -1.5830 O         1 <0>         0.0000
  28154 WAT       -33.9320  -76.6660   -1.3330 O         1 <0>         0.0000
  28155 WAT       -33.9320  -76.6660   -1.0830 O         1 <0>         0.0000
  28156 WAT       -33.9320  -76.6660   -0.8330 O         1 <0>         0.0000
  28157 WAT       -33.9320  -76.6660   -0.5830 O         1 <0>         0.0000
  28158 WAT       -33.9320  -76.6660   -0.3330 O         1 <0>         0.0000
  28159 WAT       -33.9320  -76.6660   -0.0830 O         1 <0>         0.0000
  28160 WAT       -33.9320  -76.4160   -9.8330 O         1 <0>         0.0000
  28161 WAT       -33.9320  -76.4160   -9.5830 O         1 <0>         0.0000
  28162 WAT       -33.9320  -76.4160   -9.3330 O         1 <0>         0.0000
  28163 WAT       -33.9320  -76.4160   -9.0830 O         1 <0>         0.0000
  28164 WAT       -33.9320  -76.4160   -8.8330 O         1 <0>         0.0000
  28165 WAT       -33.9320  -76.4160   -8.5830 O         1 <0>         0.0000
  28166 WAT       -33.9320  -76.4160   -8.3330 O         1 <0>         0.0000
  28167 WAT       -33.9320  -76.4160   -8.0830 O         1 <0>         0.0000
  28168 WAT       -33.9320  -76.4160   -7.8330 O         1 <0>         0.0000
  28169 WAT       -33.9320  -76.4160   -7.5830 O         1 <0>         0.0000
  28170 WAT       -33.9320  -76.4160   -7.3330 O         1 <0>         0.0000
  28171 WAT       -33.9320  -76.4160   -7.0830 O         1 <0>         0.0000
  28172 WAT       -33.9320  -76.4160   -6.8330 O         1 <0>         0.0000
  28173 WAT       -33.9320  -76.4160   -6.5830 O         1 <0>         0.0000
  28174 WAT       -33.9320  -76.4160   -6.3330 O         1 <0>         0.0000
  28175 WAT       -33.9320  -76.4160   -6.0830 O         1 <0>         0.0000
  28176 WAT       -33.9320  -76.4160   -5.8330 O         1 <0>         0.0000
  28177 WAT       -33.9320  -76.4160   -5.5830 O         1 <0>         0.0000
  28178 WAT       -33.9320  -76.4160   -5.3330 O         1 <0>         0.0000
  28179 WAT       -33.9320  -76.4160   -5.0830 O         1 <0>         0.0000
  28180 WAT       -33.9320  -76.4160   -4.8330 O         1 <0>         0.0000
  28181 WAT       -33.9320  -76.4160   -4.5830 O         1 <0>         0.0000
  28182 WAT       -33.9320  -76.4160   -4.3330 O         1 <0>         0.0000
  28183 WAT       -33.9320  -76.4160   -4.0830 O         1 <0>         0.0000
  28184 WAT       -33.9320  -76.4160   -3.8330 O         1 <0>         0.0000
  28185 WAT       -33.9320  -76.4160   -3.5830 O         1 <0>         0.0001
  28186 WAT       -33.9320  -76.4160   -3.3330 O         1 <0>         0.0001
  28187 WAT       -33.9320  -76.4160   -3.0830 O         1 <0>         0.0002
  28188 WAT       -33.9320  -76.4160   -2.8330 O         1 <0>         0.0001
  28189 WAT       -33.9320  -76.4160   -2.5830 O         1 <0>         0.0001
  28190 WAT       -33.9320  -76.4160   -2.3330 O         1 <0>         0.0000
  28191 WAT       -33.9320  -76.4160   -2.0830 O         1 <0>         0.0000
  28192 WAT       -33.9320  -76.4160   -1.8330 O         1 <0>         0.0000
  28193 WAT       -33.9320  -76.4160   -1.5830 O         1 <0>         0.0000
  28194 WAT       -33.9320  -76.4160   -1.3330 O         1 <0>         0.0000
  28195 WAT       -33.9320  -76.4160   -1.0830 O         1 <0>         0.0000
  28196 WAT       -33.9320  -76.4160   -0.8330 O         1 <0>         0.0000
  28197 WAT       -33.9320  -76.4160   -0.5830 O         1 <0>         0.0000
  28198 WAT       -33.9320  -76.4160   -0.3330 O         1 <0>         0.0000
  28199 WAT       -33.9320  -76.4160   -0.0830 O         1 <0>         0.0000
  28200 WAT       -33.9320  -76.1660   -9.8330 O         1 <0>         0.0000
  28201 WAT       -33.9320  -76.1660   -9.5830 O         1 <0>         0.0000
  28202 WAT       -33.9320  -76.1660   -9.3330 O         1 <0>         0.0000
  28203 WAT       -33.9320  -76.1660   -9.0830 O         1 <0>         0.0000
  28204 WAT       -33.9320  -76.1660   -8.8330 O         1 <0>         0.0000
  28205 WAT       -33.9320  -76.1660   -8.5830 O         1 <0>         0.0000
  28206 WAT       -33.9320  -76.1660   -8.3330 O         1 <0>         0.0000
  28207 WAT       -33.9320  -76.1660   -8.0830 O         1 <0>         0.0000
  28208 WAT       -33.9320  -76.1660   -7.8330 O         1 <0>         0.0000
  28209 WAT       -33.9320  -76.1660   -7.5830 O         1 <0>         0.0000
  28210 WAT       -33.9320  -76.1660   -7.3330 O         1 <0>         0.0000
  28211 WAT       -33.9320  -76.1660   -7.0830 O         1 <0>         0.0000
  28212 WAT       -33.9320  -76.1660   -6.8330 O         1 <0>         0.0000
  28213 WAT       -33.9320  -76.1660   -6.5830 O         1 <0>         0.0000
  28214 WAT       -33.9320  -76.1660   -6.3330 O         1 <0>         0.0000
  28215 WAT       -33.9320  -76.1660   -6.0830 O         1 <0>         0.0000
  28216 WAT       -33.9320  -76.1660   -5.8330 O         1 <0>         0.0000
  28217 WAT       -33.9320  -76.1660   -5.5830 O         1 <0>         0.0000
  28218 WAT       -33.9320  -76.1660   -5.3330 O         1 <0>         0.0000
  28219 WAT       -33.9320  -76.1660   -5.0830 O         1 <0>         0.0000
  28220 WAT       -33.9320  -76.1660   -4.8330 O         1 <0>         0.0000
  28221 WAT       -33.9320  -76.1660   -4.5830 O         1 <0>         0.0000
  28222 WAT       -33.9320  -76.1660   -4.3330 O         1 <0>         0.0000
  28223 WAT       -33.9320  -76.1660   -4.0830 O         1 <0>         0.0001
  28224 WAT       -33.9320  -76.1660   -3.8330 O         1 <0>         0.0003
  28225 WAT       -33.9320  -76.1660   -3.5830 O         1 <0>         0.0009
  28226 WAT       -33.9320  -76.1660   -3.3330 O         1 <0>         0.0015
  28227 WAT       -33.9320  -76.1660   -3.0830 O         1 <0>         0.0016
  28228 WAT       -33.9320  -76.1660   -2.8330 O         1 <0>         0.0011
  28229 WAT       -33.9320  -76.1660   -2.5830 O         1 <0>         0.0005
  28230 WAT       -33.9320  -76.1660   -2.3330 O         1 <0>         0.0001
  28231 WAT       -33.9320  -76.1660   -2.0830 O         1 <0>         0.0000
  28232 WAT       -33.9320  -76.1660   -1.8330 O         1 <0>         0.0000
  28233 WAT       -33.9320  -76.1660   -1.5830 O         1 <0>         0.0000
  28234 WAT       -33.9320  -76.1660   -1.3330 O         1 <0>         0.0000
  28235 WAT       -33.9320  -76.1660   -1.0830 O         1 <0>         0.0000
  28236 WAT       -33.9320  -76.1660   -0.8330 O         1 <0>         0.0000
  28237 WAT       -33.9320  -76.1660   -0.5830 O         1 <0>         0.0000
  28238 WAT       -33.9320  -76.1660   -0.3330 O         1 <0>         0.0000
  28239 WAT       -33.9320  -76.1660   -0.0830 O         1 <0>         0.0000
  28240 WAT       -33.9320  -75.9160   -9.8330 O         1 <0>         0.0000
  28241 WAT       -33.9320  -75.9160   -9.5830 O         1 <0>         0.0000
  28242 WAT       -33.9320  -75.9160   -9.3330 O         1 <0>         0.0000
  28243 WAT       -33.9320  -75.9160   -9.0830 O         1 <0>         0.0000
  28244 WAT       -33.9320  -75.9160   -8.8330 O         1 <0>         0.0000
  28245 WAT       -33.9320  -75.9160   -8.5830 O         1 <0>         0.0000
  28246 WAT       -33.9320  -75.9160   -8.3330 O         1 <0>         0.0000
  28247 WAT       -33.9320  -75.9160   -8.0830 O         1 <0>         0.0000
  28248 WAT       -33.9320  -75.9160   -7.8330 O         1 <0>         0.0000
  28249 WAT       -33.9320  -75.9160   -7.5830 O         1 <0>         0.0000
  28250 WAT       -33.9320  -75.9160   -7.3330 O         1 <0>         0.0000
  28251 WAT       -33.9320  -75.9160   -7.0830 O         1 <0>         0.0000
  28252 WAT       -33.9320  -75.9160   -6.8330 O         1 <0>         0.0000
  28253 WAT       -33.9320  -75.9160   -6.5830 O         1 <0>         0.0000
  28254 WAT       -33.9320  -75.9160   -6.3330 O         1 <0>         0.0000
  28255 WAT       -33.9320  -75.9160   -6.0830 O         1 <0>         0.0000
  28256 WAT       -33.9320  -75.9160   -5.8330 O         1 <0>         0.0000
  28257 WAT       -33.9320  -75.9160   -5.5830 O         1 <0>         0.0000
  28258 WAT       -33.9320  -75.9160   -5.3330 O         1 <0>         0.0000
  28259 WAT       -33.9320  -75.9160   -5.0830 O         1 <0>         0.0000
  28260 WAT       -33.9320  -75.9160   -4.8330 O         1 <0>         0.0000
  28261 WAT       -33.9320  -75.9160   -4.5830 O         1 <0>         0.0000
  28262 WAT       -33.9320  -75.9160   -4.3330 O         1 <0>         0.0001
  28263 WAT       -33.9320  -75.9160   -4.0830 O         1 <0>         0.0007
  28264 WAT       -33.9320  -75.9160   -3.8330 O         1 <0>         0.0022
  28265 WAT       -33.9320  -75.9160   -3.5830 O         1 <0>         0.0048
  28266 WAT       -33.9320  -75.9160   -3.3330 O         1 <0>         0.0071
  28267 WAT       -33.9320  -75.9160   -3.0830 O         1 <0>         0.0072
  28268 WAT       -33.9320  -75.9160   -2.8330 O         1 <0>         0.0050
  28269 WAT       -33.9320  -75.9160   -2.5830 O         1 <0>         0.0023
  28270 WAT       -33.9320  -75.9160   -2.3330 O         1 <0>         0.0006
  28271 WAT       -33.9320  -75.9160   -2.0830 O         1 <0>         0.0001
  28272 WAT       -33.9320  -75.9160   -1.8330 O         1 <0>         0.0000
  28273 WAT       -33.9320  -75.9160   -1.5830 O         1 <0>         0.0000
  28274 WAT       -33.9320  -75.9160   -1.3330 O         1 <0>         0.0000
  28275 WAT       -33.9320  -75.9160   -1.0830 O         1 <0>         0.0000
  28276 WAT       -33.9320  -75.9160   -0.8330 O         1 <0>         0.0000
  28277 WAT       -33.9320  -75.9160   -0.5830 O         1 <0>         0.0000
  28278 WAT       -33.9320  -75.9160   -0.3330 O         1 <0>         0.0000
  28279 WAT       -33.9320  -75.9160   -0.0830 O         1 <0>         0.0000
  28280 WAT       -33.9320  -75.6660   -9.8330 O         1 <0>         0.0000
  28281 WAT       -33.9320  -75.6660   -9.5830 O         1 <0>         0.0000
  28282 WAT       -33.9320  -75.6660   -9.3330 O         1 <0>         0.0000
  28283 WAT       -33.9320  -75.6660   -9.0830 O         1 <0>         0.0000
  28284 WAT       -33.9320  -75.6660   -8.8330 O         1 <0>         0.0000
  28285 WAT       -33.9320  -75.6660   -8.5830 O         1 <0>         0.0000
  28286 WAT       -33.9320  -75.6660   -8.3330 O         1 <0>         0.0000
  28287 WAT       -33.9320  -75.6660   -8.0830 O         1 <0>         0.0000
  28288 WAT       -33.9320  -75.6660   -7.8330 O         1 <0>         0.0000
  28289 WAT       -33.9320  -75.6660   -7.5830 O         1 <0>         0.0000
  28290 WAT       -33.9320  -75.6660   -7.3330 O         1 <0>         0.0000
  28291 WAT       -33.9320  -75.6660   -7.0830 O         1 <0>         0.0000
  28292 WAT       -33.9320  -75.6660   -6.8330 O         1 <0>         0.0000
  28293 WAT       -33.9320  -75.6660   -6.5830 O         1 <0>         0.0000
  28294 WAT       -33.9320  -75.6660   -6.3330 O         1 <0>         0.0000
  28295 WAT       -33.9320  -75.6660   -6.0830 O         1 <0>         0.0000
  28296 WAT       -33.9320  -75.6660   -5.8330 O         1 <0>         0.0000
  28297 WAT       -33.9320  -75.6660   -5.5830 O         1 <0>         0.0000
  28298 WAT       -33.9320  -75.6660   -5.3330 O         1 <0>         0.0000
  28299 WAT       -33.9320  -75.6660   -5.0830 O         1 <0>         0.0000
  28300 WAT       -33.9320  -75.6660   -4.8330 O         1 <0>         0.0000
  28301 WAT       -33.9320  -75.6660   -4.5830 O         1 <0>         0.0002
  28302 WAT       -33.9320  -75.6660   -4.3330 O         1 <0>         0.0009
  28303 WAT       -33.9320  -75.6660   -4.0830 O         1 <0>         0.0031
  28304 WAT       -33.9320  -75.6660   -3.8330 O         1 <0>         0.0080
  28305 WAT       -33.9320  -75.6660   -3.5830 O         1 <0>         0.0150
  28306 WAT       -33.9320  -75.6660   -3.3330 O         1 <0>         0.0207
  28307 WAT       -33.9320  -75.6660   -3.0830 O         1 <0>         0.0205
  28308 WAT       -33.9320  -75.6660   -2.8330 O         1 <0>         0.0143
  28309 WAT       -33.9320  -75.6660   -2.5830 O         1 <0>         0.0068
  28310 WAT       -33.9320  -75.6660   -2.3330 O         1 <0>         0.0020
  28311 WAT       -33.9320  -75.6660   -2.0830 O         1 <0>         0.0003
  28312 WAT       -33.9320  -75.6660   -1.8330 O         1 <0>         0.0000
  28313 WAT       -33.9320  -75.6660   -1.5830 O         1 <0>         0.0000
  28314 WAT       -33.9320  -75.6660   -1.3330 O         1 <0>         0.0000
  28315 WAT       -33.9320  -75.6660   -1.0830 O         1 <0>         0.0000
  28316 WAT       -33.9320  -75.6660   -0.8330 O         1 <0>         0.0000
  28317 WAT       -33.9320  -75.6660   -0.5830 O         1 <0>         0.0000
  28318 WAT       -33.9320  -75.6660   -0.3330 O         1 <0>         0.0000
  28319 WAT       -33.9320  -75.6660   -0.0830 O         1 <0>         0.0000
  28320 WAT       -33.9320  -75.4160   -9.8330 O         1 <0>         0.0000
  28321 WAT       -33.9320  -75.4160   -9.5830 O         1 <0>         0.0000
  28322 WAT       -33.9320  -75.4160   -9.3330 O         1 <0>         0.0000
  28323 WAT       -33.9320  -75.4160   -9.0830 O         1 <0>         0.0000
  28324 WAT       -33.9320  -75.4160   -8.8330 O         1 <0>         0.0000
  28325 WAT       -33.9320  -75.4160   -8.5830 O         1 <0>         0.0000
  28326 WAT       -33.9320  -75.4160   -8.3330 O         1 <0>         0.0000
  28327 WAT       -33.9320  -75.4160   -8.0830 O         1 <0>         0.0000
  28328 WAT       -33.9320  -75.4160   -7.8330 O         1 <0>         0.0000
  28329 WAT       -33.9320  -75.4160   -7.5830 O         1 <0>         0.0000
  28330 WAT       -33.9320  -75.4160   -7.3330 O         1 <0>         0.0000
  28331 WAT       -33.9320  -75.4160   -7.0830 O         1 <0>         0.0000
  28332 WAT       -33.9320  -75.4160   -6.8330 O         1 <0>         0.0000
  28333 WAT       -33.9320  -75.4160   -6.5830 O         1 <0>         0.0000
  28334 WAT       -33.9320  -75.4160   -6.3330 O         1 <0>         0.0000
  28335 WAT       -33.9320  -75.4160   -6.0830 O         1 <0>         0.0000
  28336 WAT       -33.9320  -75.4160   -5.8330 O         1 <0>         0.0000
  28337 WAT       -33.9320  -75.4160   -5.5830 O         1 <0>         0.0000
  28338 WAT       -33.9320  -75.4160   -5.3330 O         1 <0>         0.0000
  28339 WAT       -33.9320  -75.4160   -5.0830 O         1 <0>         0.0001
  28340 WAT       -33.9320  -75.4160   -4.8330 O         1 <0>         0.0002
  28341 WAT       -33.9320  -75.4160   -4.5830 O         1 <0>         0.0008
  28342 WAT       -33.9320  -75.4160   -4.3330 O         1 <0>         0.0027
  28343 WAT       -33.9320  -75.4160   -4.0830 O         1 <0>         0.0078
  28344 WAT       -33.9320  -75.4160   -3.8330 O         1 <0>         0.0178
  28345 WAT       -33.9320  -75.4160   -3.5830 O         1 <0>         0.0311
  28346 WAT       -33.9320  -75.4160   -3.3330 O         1 <0>         0.0410
  28347 WAT       -33.9320  -75.4160   -3.0830 O         1 <0>         0.0400
  28348 WAT       -33.9320  -75.4160   -2.8330 O         1 <0>         0.0280
  28349 WAT       -33.9320  -75.4160   -2.5830 O         1 <0>         0.0137
  28350 WAT       -33.9320  -75.4160   -2.3330 O         1 <0>         0.0044
  28351 WAT       -33.9320  -75.4160   -2.0830 O         1 <0>         0.0008
  28352 WAT       -33.9320  -75.4160   -1.8330 O         1 <0>         0.0001
  28353 WAT       -33.9320  -75.4160   -1.5830 O         1 <0>         0.0000
  28354 WAT       -33.9320  -75.4160   -1.3330 O         1 <0>         0.0000
  28355 WAT       -33.9320  -75.4160   -1.0830 O         1 <0>         0.0000
  28356 WAT       -33.9320  -75.4160   -0.8330 O         1 <0>         0.0000
  28357 WAT       -33.9320  -75.4160   -0.5830 O         1 <0>         0.0000
  28358 WAT       -33.9320  -75.4160   -0.3330 O         1 <0>         0.0000
  28359 WAT       -33.9320  -75.4160   -0.0830 O         1 <0>         0.0000
  28360 WAT       -33.9320  -75.1660   -9.8330 O         1 <0>         0.0000
  28361 WAT       -33.9320  -75.1660   -9.5830 O         1 <0>         0.0000
  28362 WAT       -33.9320  -75.1660   -9.3330 O         1 <0>         0.0000
  28363 WAT       -33.9320  -75.1660   -9.0830 O         1 <0>         0.0000
  28364 WAT       -33.9320  -75.1660   -8.8330 O         1 <0>         0.0000
  28365 WAT       -33.9320  -75.1660   -8.5830 O         1 <0>         0.0000
  28366 WAT       -33.9320  -75.1660   -8.3330 O         1 <0>         0.0000
  28367 WAT       -33.9320  -75.1660   -8.0830 O         1 <0>         0.0000
  28368 WAT       -33.9320  -75.1660   -7.8330 O         1 <0>         0.0000
  28369 WAT       -33.9320  -75.1660   -7.5830 O         1 <0>         0.0000
  28370 WAT       -33.9320  -75.1660   -7.3330 O         1 <0>         0.0000
  28371 WAT       -33.9320  -75.1660   -7.0830 O         1 <0>         0.0000
  28372 WAT       -33.9320  -75.1660   -6.8330 O         1 <0>         0.0000
  28373 WAT       -33.9320  -75.1660   -6.5830 O         1 <0>         0.0000
  28374 WAT       -33.9320  -75.1660   -6.3330 O         1 <0>         0.0000
  28375 WAT       -33.9320  -75.1660   -6.0830 O         1 <0>         0.0000
  28376 WAT       -33.9320  -75.1660   -5.8330 O         1 <0>         0.0000
  28377 WAT       -33.9320  -75.1660   -5.5830 O         1 <0>         0.0001
  28378 WAT       -33.9320  -75.1660   -5.3330 O         1 <0>         0.0001
  28379 WAT       -33.9320  -75.1660   -5.0830 O         1 <0>         0.0002
  28380 WAT       -33.9320  -75.1660   -4.8330 O         1 <0>         0.0006
  28381 WAT       -33.9320  -75.1660   -4.5830 O         1 <0>         0.0017
  28382 WAT       -33.9320  -75.1660   -4.3330 O         1 <0>         0.0051
  28383 WAT       -33.9320  -75.1660   -4.0830 O         1 <0>         0.0128
  28384 WAT       -33.9320  -75.1660   -3.8330 O         1 <0>         0.0265
  28385 WAT       -33.9320  -75.1660   -3.5830 O         1 <0>         0.0437
  28386 WAT       -33.9320  -75.1660   -3.3330 O         1 <0>         0.0564
  28387 WAT       -33.9320  -75.1660   -3.0830 O         1 <0>         0.0554
  28388 WAT       -33.9320  -75.1660   -2.8330 O         1 <0>         0.0401
  28389 WAT       -33.9320  -75.1660   -2.5830 O         1 <0>         0.0211
  28390 WAT       -33.9320  -75.1660   -2.3330 O         1 <0>         0.0078
  28391 WAT       -33.9320  -75.1660   -2.0830 O         1 <0>         0.0019
  28392 WAT       -33.9320  -75.1660   -1.8330 O         1 <0>         0.0003
  28393 WAT       -33.9320  -75.1660   -1.5830 O         1 <0>         0.0000
  28394 WAT       -33.9320  -75.1660   -1.3330 O         1 <0>         0.0000
  28395 WAT       -33.9320  -75.1660   -1.0830 O         1 <0>         0.0000
  28396 WAT       -33.9320  -75.1660   -0.8330 O         1 <0>         0.0000
  28397 WAT       -33.9320  -75.1660   -0.5830 O         1 <0>         0.0000
  28398 WAT       -33.9320  -75.1660   -0.3330 O         1 <0>         0.0000
  28399 WAT       -33.9320  -75.1660   -0.0830 O         1 <0>         0.0000
  28400 WAT       -33.9320  -74.9160   -9.8330 O         1 <0>         0.0000
  28401 WAT       -33.9320  -74.9160   -9.5830 O         1 <0>         0.0000
  28402 WAT       -33.9320  -74.9160   -9.3330 O         1 <0>         0.0000
  28403 WAT       -33.9320  -74.9160   -9.0830 O         1 <0>         0.0000
  28404 WAT       -33.9320  -74.9160   -8.8330 O         1 <0>         0.0000
  28405 WAT       -33.9320  -74.9160   -8.5830 O         1 <0>         0.0000
  28406 WAT       -33.9320  -74.9160   -8.3330 O         1 <0>         0.0000
  28407 WAT       -33.9320  -74.9160   -8.0830 O         1 <0>         0.0000
  28408 WAT       -33.9320  -74.9160   -7.8330 O         1 <0>         0.0000
  28409 WAT       -33.9320  -74.9160   -7.5830 O         1 <0>         0.0000
  28410 WAT       -33.9320  -74.9160   -7.3330 O         1 <0>         0.0000
  28411 WAT       -33.9320  -74.9160   -7.0830 O         1 <0>         0.0000
  28412 WAT       -33.9320  -74.9160   -6.8330 O         1 <0>         0.0000
  28413 WAT       -33.9320  -74.9160   -6.5830 O         1 <0>         0.0001
  28414 WAT       -33.9320  -74.9160   -6.3330 O         1 <0>         0.0002
  28415 WAT       -33.9320  -74.9160   -6.0830 O         1 <0>         0.0003
  28416 WAT       -33.9320  -74.9160   -5.8330 O         1 <0>         0.0004
  28417 WAT       -33.9320  -74.9160   -5.5830 O         1 <0>         0.0004
  28418 WAT       -33.9320  -74.9160   -5.3330 O         1 <0>         0.0004
  28419 WAT       -33.9320  -74.9160   -5.0830 O         1 <0>         0.0006
  28420 WAT       -33.9320  -74.9160   -4.8330 O         1 <0>         0.0011
  28421 WAT       -33.9320  -74.9160   -4.5830 O         1 <0>         0.0026
  28422 WAT       -33.9320  -74.9160   -4.3330 O         1 <0>         0.0063
  28423 WAT       -33.9320  -74.9160   -4.0830 O         1 <0>         0.0139
  28424 WAT       -33.9320  -74.9160   -3.8330 O         1 <0>         0.0268
  28425 WAT       -33.9320  -74.9160   -3.5830 O         1 <0>         0.0429
  28426 WAT       -33.9320  -74.9160   -3.3330 O         1 <0>         0.0559
  28427 WAT       -33.9320  -74.9160   -3.0830 O         1 <0>         0.0579
  28428 WAT       -33.9320  -74.9160   -2.8330 O         1 <0>         0.0467
  28429 WAT       -33.9320  -74.9160   -2.5830 O         1 <0>         0.0289
  28430 WAT       -33.9320  -74.9160   -2.3330 O         1 <0>         0.0135
  28431 WAT       -33.9320  -74.9160   -2.0830 O         1 <0>         0.0045
  28432 WAT       -33.9320  -74.9160   -1.8330 O         1 <0>         0.0010
  28433 WAT       -33.9320  -74.9160   -1.5830 O         1 <0>         0.0001
  28434 WAT       -33.9320  -74.9160   -1.3330 O         1 <0>         0.0000
  28435 WAT       -33.9320  -74.9160   -1.0830 O         1 <0>         0.0000
  28436 WAT       -33.9320  -74.9160   -0.8330 O         1 <0>         0.0000
  28437 WAT       -33.9320  -74.9160   -0.5830 O         1 <0>         0.0000
  28438 WAT       -33.9320  -74.9160   -0.3330 O         1 <0>         0.0000
  28439 WAT       -33.9320  -74.9160   -0.0830 O         1 <0>         0.0000
  28440 WAT       -33.9320  -74.6660   -9.8330 O         1 <0>         0.0000
  28441 WAT       -33.9320  -74.6660   -9.5830 O         1 <0>         0.0000
  28442 WAT       -33.9320  -74.6660   -9.3330 O         1 <0>         0.0000
  28443 WAT       -33.9320  -74.6660   -9.0830 O         1 <0>         0.0000
  28444 WAT       -33.9320  -74.6660   -8.8330 O         1 <0>         0.0000
  28445 WAT       -33.9320  -74.6660   -8.5830 O         1 <0>         0.0000
  28446 WAT       -33.9320  -74.6660   -8.3330 O         1 <0>         0.0000
  28447 WAT       -33.9320  -74.6660   -8.0830 O         1 <0>         0.0000
  28448 WAT       -33.9320  -74.6660   -7.8330 O         1 <0>         0.0000
  28449 WAT       -33.9320  -74.6660   -7.5830 O         1 <0>         0.0000
  28450 WAT       -33.9320  -74.6660   -7.3330 O         1 <0>         0.0000
  28451 WAT       -33.9320  -74.6660   -7.0830 O         1 <0>         0.0000
  28452 WAT       -33.9320  -74.6660   -6.8330 O         1 <0>         0.0001
  28453 WAT       -33.9320  -74.6660   -6.5830 O         1 <0>         0.0004
  28454 WAT       -33.9320  -74.6660   -6.3330 O         1 <0>         0.0009
  28455 WAT       -33.9320  -74.6660   -6.0830 O         1 <0>         0.0014
  28456 WAT       -33.9320  -74.6660   -5.8330 O         1 <0>         0.0016
  28457 WAT       -33.9320  -74.6660   -5.5830 O         1 <0>         0.0015
  28458 WAT       -33.9320  -74.6660   -5.3330 O         1 <0>         0.0014
  28459 WAT       -33.9320  -74.6660   -5.0830 O         1 <0>         0.0014
  28460 WAT       -33.9320  -74.6660   -4.8330 O         1 <0>         0.0018
  28461 WAT       -33.9320  -74.6660   -4.5830 O         1 <0>         0.0029
  28462 WAT       -33.9320  -74.6660   -4.3330 O         1 <0>         0.0055
  28463 WAT       -33.9320  -74.6660   -4.0830 O         1 <0>         0.0106
  28464 WAT       -33.9320  -74.6660   -3.8330 O         1 <0>         0.0193
  28465 WAT       -33.9320  -74.6660   -3.5830 O         1 <0>         0.0313
  28466 WAT       -33.9320  -74.6660   -3.3330 O         1 <0>         0.0440
  28467 WAT       -33.9320  -74.6660   -3.0830 O         1 <0>         0.0521
  28468 WAT       -33.9320  -74.6660   -2.8330 O         1 <0>         0.0510
  28469 WAT       -33.9320  -74.6660   -2.5830 O         1 <0>         0.0399
  28470 WAT       -33.9320  -74.6660   -2.3330 O         1 <0>         0.0238
  28471 WAT       -33.9320  -74.6660   -2.0830 O         1 <0>         0.0104
  28472 WAT       -33.9320  -74.6660   -1.8330 O         1 <0>         0.0030
  28473 WAT       -33.9320  -74.6660   -1.5830 O         1 <0>         0.0005
  28474 WAT       -33.9320  -74.6660   -1.3330 O         1 <0>         0.0000
  28475 WAT       -33.9320  -74.6660   -1.0830 O         1 <0>         0.0000
  28476 WAT       -33.9320  -74.6660   -0.8330 O         1 <0>         0.0000
  28477 WAT       -33.9320  -74.6660   -0.5830 O         1 <0>         0.0000
  28478 WAT       -33.9320  -74.6660   -0.3330 O         1 <0>         0.0000
  28479 WAT       -33.9320  -74.6660   -0.0830 O         1 <0>         0.0000
  28480 WAT       -33.9320  -74.4160   -9.8330 O         1 <0>         0.0000
  28481 WAT       -33.9320  -74.4160   -9.5830 O         1 <0>         0.0000
  28482 WAT       -33.9320  -74.4160   -9.3330 O         1 <0>         0.0000
  28483 WAT       -33.9320  -74.4160   -9.0830 O         1 <0>         0.0000
  28484 WAT       -33.9320  -74.4160   -8.8330 O         1 <0>         0.0000
  28485 WAT       -33.9320  -74.4160   -8.5830 O         1 <0>         0.0000
  28486 WAT       -33.9320  -74.4160   -8.3330 O         1 <0>         0.0000
  28487 WAT       -33.9320  -74.4160   -8.0830 O         1 <0>         0.0000
  28488 WAT       -33.9320  -74.4160   -7.8330 O         1 <0>         0.0000
  28489 WAT       -33.9320  -74.4160   -7.5830 O         1 <0>         0.0000
  28490 WAT       -33.9320  -74.4160   -7.3330 O         1 <0>         0.0000
  28491 WAT       -33.9320  -74.4160   -7.0830 O         1 <0>         0.0001
  28492 WAT       -33.9320  -74.4160   -6.8330 O         1 <0>         0.0004
  28493 WAT       -33.9320  -74.4160   -6.5830 O         1 <0>         0.0013
  28494 WAT       -33.9320  -74.4160   -6.3330 O         1 <0>         0.0027
  28495 WAT       -33.9320  -74.4160   -6.0830 O         1 <0>         0.0039
  28496 WAT       -33.9320  -74.4160   -5.8330 O         1 <0>         0.0043
  28497 WAT       -33.9320  -74.4160   -5.5830 O         1 <0>         0.0041
  28498 WAT       -33.9320  -74.4160   -5.3330 O         1 <0>         0.0037
  28499 WAT       -33.9320  -74.4160   -5.0830 O         1 <0>         0.0032
  28500 WAT       -33.9320  -74.4160   -4.8330 O         1 <0>         0.0028
  28501 WAT       -33.9320  -74.4160   -4.5830 O         1 <0>         0.0029
  28502 WAT       -33.9320  -74.4160   -4.3330 O         1 <0>         0.0037
  28503 WAT       -33.9320  -74.4160   -4.0830 O         1 <0>         0.0061
  28504 WAT       -33.9320  -74.4160   -3.8330 O         1 <0>         0.0109
  28505 WAT       -33.9320  -74.4160   -3.5830 O         1 <0>         0.0194
  28506 WAT       -33.9320  -74.4160   -3.3330 O         1 <0>         0.0321
  28507 WAT       -33.9320  -74.4160   -3.0830 O         1 <0>         0.0470
  28508 WAT       -33.9320  -74.4160   -2.8330 O         1 <0>         0.0572
  28509 WAT       -33.9320  -74.4160   -2.5830 O         1 <0>         0.0546
  28510 WAT       -33.9320  -74.4160   -2.3330 O         1 <0>         0.0390
  28511 WAT       -33.9320  -74.4160   -2.0830 O         1 <0>         0.0200
  28512 WAT       -33.9320  -74.4160   -1.8330 O         1 <0>         0.0069
  28513 WAT       -33.9320  -74.4160   -1.5830 O         1 <0>         0.0015
  28514 WAT       -33.9320  -74.4160   -1.3330 O         1 <0>         0.0001
  28515 WAT       -33.9320  -74.4160   -1.0830 O         1 <0>         0.0000
  28516 WAT       -33.9320  -74.4160   -0.8330 O         1 <0>         0.0000
  28517 WAT       -33.9320  -74.4160   -0.5830 O         1 <0>         0.0000
  28518 WAT       -33.9320  -74.4160   -0.3330 O         1 <0>         0.0000
  28519 WAT       -33.9320  -74.4160   -0.0830 O         1 <0>         0.0000
  28520 WAT       -33.9320  -74.1660   -9.8330 O         1 <0>         0.0000
  28521 WAT       -33.9320  -74.1660   -9.5830 O         1 <0>         0.0000
  28522 WAT       -33.9320  -74.1660   -9.3330 O         1 <0>         0.0000
  28523 WAT       -33.9320  -74.1660   -9.0830 O         1 <0>         0.0000
  28524 WAT       -33.9320  -74.1660   -8.8330 O         1 <0>         0.0000
  28525 WAT       -33.9320  -74.1660   -8.5830 O         1 <0>         0.0000
  28526 WAT       -33.9320  -74.1660   -8.3330 O         1 <0>         0.0000
  28527 WAT       -33.9320  -74.1660   -8.0830 O         1 <0>         0.0000
  28528 WAT       -33.9320  -74.1660   -7.8330 O         1 <0>         0.0000
  28529 WAT       -33.9320  -74.1660   -7.5830 O         1 <0>         0.0000
  28530 WAT       -33.9320  -74.1660   -7.3330 O         1 <0>         0.0000
  28531 WAT       -33.9320  -74.1660   -7.0830 O         1 <0>         0.0002
  28532 WAT       -33.9320  -74.1660   -6.8330 O         1 <0>         0.0009
  28533 WAT       -33.9320  -74.1660   -6.5830 O         1 <0>         0.0025
  28534 WAT       -33.9320  -74.1660   -6.3330 O         1 <0>         0.0049
  28535 WAT       -33.9320  -74.1660   -6.0830 O         1 <0>         0.0070
  28536 WAT       -33.9320  -74.1660   -5.8330 O         1 <0>         0.0080
  28537 WAT       -33.9320  -74.1660   -5.5830 O         1 <0>         0.0079
  28538 WAT       -33.9320  -74.1660   -5.3330 O         1 <0>         0.0073
  28539 WAT       -33.9320  -74.1660   -5.0830 O         1 <0>         0.0061
  28540 WAT       -33.9320  -74.1660   -4.8330 O         1 <0>         0.0044
  28541 WAT       -33.9320  -74.1660   -4.5830 O         1 <0>         0.0030
  28542 WAT       -33.9320  -74.1660   -4.3330 O         1 <0>         0.0025
  28543 WAT       -33.9320  -74.1660   -4.0830 O         1 <0>         0.0030
  28544 WAT       -33.9320  -74.1660   -3.8330 O         1 <0>         0.0057
  28545 WAT       -33.9320  -74.1660   -3.5830 O         1 <0>         0.0121
  28546 WAT       -33.9320  -74.1660   -3.3330 O         1 <0>         0.0246
  28547 WAT       -33.9320  -74.1660   -3.0830 O         1 <0>         0.0435
  28548 WAT       -33.9320  -74.1660   -2.8330 O         1 <0>         0.0615
  28549 WAT       -33.9320  -74.1660   -2.5830 O         1 <0>         0.0666
  28550 WAT       -33.9320  -74.1660   -2.3330 O         1 <0>         0.0533
  28551 WAT       -33.9320  -74.1660   -2.0830 O         1 <0>         0.0305
  28552 WAT       -33.9320  -74.1660   -1.8330 O         1 <0>         0.0120
  28553 WAT       -33.9320  -74.1660   -1.5830 O         1 <0>         0.0030
  28554 WAT       -33.9320  -74.1660   -1.3330 O         1 <0>         0.0004
  28555 WAT       -33.9320  -74.1660   -1.0830 O         1 <0>         0.0000
  28556 WAT       -33.9320  -74.1660   -0.8330 O         1 <0>         0.0000
  28557 WAT       -33.9320  -74.1660   -0.5830 O         1 <0>         0.0000
  28558 WAT       -33.9320  -74.1660   -0.3330 O         1 <0>         0.0000
  28559 WAT       -33.9320  -74.1660   -0.0830 O         1 <0>         0.0000
  28560 WAT       -33.9320  -73.9160   -9.8330 O         1 <0>         0.0000
  28561 WAT       -33.9320  -73.9160   -9.5830 O         1 <0>         0.0000
  28562 WAT       -33.9320  -73.9160   -9.3330 O         1 <0>         0.0000
  28563 WAT       -33.9320  -73.9160   -9.0830 O         1 <0>         0.0000
  28564 WAT       -33.9320  -73.9160   -8.8330 O         1 <0>         0.0000
  28565 WAT       -33.9320  -73.9160   -8.5830 O         1 <0>         0.0000
  28566 WAT       -33.9320  -73.9160   -8.3330 O         1 <0>         0.0000
  28567 WAT       -33.9320  -73.9160   -8.0830 O         1 <0>         0.0000
  28568 WAT       -33.9320  -73.9160   -7.8330 O         1 <0>         0.0000
  28569 WAT       -33.9320  -73.9160   -7.5830 O         1 <0>         0.0000
  28570 WAT       -33.9320  -73.9160   -7.3330 O         1 <0>         0.0001
  28571 WAT       -33.9320  -73.9160   -7.0830 O         1 <0>         0.0004
  28572 WAT       -33.9320  -73.9160   -6.8330 O         1 <0>         0.0014
  28573 WAT       -33.9320  -73.9160   -6.5830 O         1 <0>         0.0034
  28574 WAT       -33.9320  -73.9160   -6.3330 O         1 <0>         0.0061
  28575 WAT       -33.9320  -73.9160   -6.0830 O         1 <0>         0.0087
  28576 WAT       -33.9320  -73.9160   -5.8330 O         1 <0>         0.0104
  28577 WAT       -33.9320  -73.9160   -5.5830 O         1 <0>         0.0113
  28578 WAT       -33.9320  -73.9160   -5.3330 O         1 <0>         0.0113
  28579 WAT       -33.9320  -73.9160   -5.0830 O         1 <0>         0.0097
  28580 WAT       -33.9320  -73.9160   -4.8330 O         1 <0>         0.0067
  28581 WAT       -33.9320  -73.9160   -4.5830 O         1 <0>         0.0037
  28582 WAT       -33.9320  -73.9160   -4.3330 O         1 <0>         0.0019
  28583 WAT       -33.9320  -73.9160   -4.0830 O         1 <0>         0.0017
  28584 WAT       -33.9320  -73.9160   -3.8330 O         1 <0>         0.0032
  28585 WAT       -33.9320  -73.9160   -3.5830 O         1 <0>         0.0082
  28586 WAT       -33.9320  -73.9160   -3.3330 O         1 <0>         0.0193
  28587 WAT       -33.9320  -73.9160   -3.0830 O         1 <0>         0.0376
  28588 WAT       -33.9320  -73.9160   -2.8330 O         1 <0>         0.0576
  28589 WAT       -33.9320  -73.9160   -2.5830 O         1 <0>         0.0673
  28590 WAT       -33.9320  -73.9160   -2.3330 O         1 <0>         0.0586
  28591 WAT       -33.9320  -73.9160   -2.0830 O         1 <0>         0.0367
  28592 WAT       -33.9320  -73.9160   -1.8330 O         1 <0>         0.0160
  28593 WAT       -33.9320  -73.9160   -1.5830 O         1 <0>         0.0047
  28594 WAT       -33.9320  -73.9160   -1.3330 O         1 <0>         0.0008
  28595 WAT       -33.9320  -73.9160   -1.0830 O         1 <0>         0.0001
  28596 WAT       -33.9320  -73.9160   -0.8330 O         1 <0>         0.0000
  28597 WAT       -33.9320  -73.9160   -0.5830 O         1 <0>         0.0000
  28598 WAT       -33.9320  -73.9160   -0.3330 O         1 <0>         0.0000
  28599 WAT       -33.9320  -73.9160   -0.0830 O         1 <0>         0.0000
  28600 WAT       -33.9320  -73.6660   -9.8330 O         1 <0>         0.0000
  28601 WAT       -33.9320  -73.6660   -9.5830 O         1 <0>         0.0000
  28602 WAT       -33.9320  -73.6660   -9.3330 O         1 <0>         0.0000
  28603 WAT       -33.9320  -73.6660   -9.0830 O         1 <0>         0.0000
  28604 WAT       -33.9320  -73.6660   -8.8330 O         1 <0>         0.0000
  28605 WAT       -33.9320  -73.6660   -8.5830 O         1 <0>         0.0000
  28606 WAT       -33.9320  -73.6660   -8.3330 O         1 <0>         0.0000
  28607 WAT       -33.9320  -73.6660   -8.0830 O         1 <0>         0.0000
  28608 WAT       -33.9320  -73.6660   -7.8330 O         1 <0>         0.0000
  28609 WAT       -33.9320  -73.6660   -7.5830 O         1 <0>         0.0000
  28610 WAT       -33.9320  -73.6660   -7.3330 O         1 <0>         0.0001
  28611 WAT       -33.9320  -73.6660   -7.0830 O         1 <0>         0.0006
  28612 WAT       -33.9320  -73.6660   -6.8330 O         1 <0>         0.0017
  28613 WAT       -33.9320  -73.6660   -6.5830 O         1 <0>         0.0035
  28614 WAT       -33.9320  -73.6660   -6.3330 O         1 <0>         0.0056
  28615 WAT       -33.9320  -73.6660   -6.0830 O         1 <0>         0.0078
  28616 WAT       -33.9320  -73.6660   -5.8330 O         1 <0>         0.0099
  28617 WAT       -33.9320  -73.6660   -5.5830 O         1 <0>         0.0121
  28618 WAT       -33.9320  -73.6660   -5.3330 O         1 <0>         0.0136
  28619 WAT       -33.9320  -73.6660   -5.0830 O         1 <0>         0.0125
  28620 WAT       -33.9320  -73.6660   -4.8330 O         1 <0>         0.0089
  28621 WAT       -33.9320  -73.6660   -4.5830 O         1 <0>         0.0048
  28622 WAT       -33.9320  -73.6660   -4.3330 O         1 <0>         0.0021
  28623 WAT       -33.9320  -73.6660   -4.0830 O         1 <0>         0.0011
  28624 WAT       -33.9320  -73.6660   -3.8330 O         1 <0>         0.0021
  28625 WAT       -33.9320  -73.6660   -3.5830 O         1 <0>         0.0056
  28626 WAT       -33.9320  -73.6660   -3.3330 O         1 <0>         0.0140
  28627 WAT       -33.9320  -73.6660   -3.0830 O         1 <0>         0.0287
  28628 WAT       -33.9320  -73.6660   -2.8330 O         1 <0>         0.0459
  28629 WAT       -33.9320  -73.6660   -2.5830 O         1 <0>         0.0569
  28630 WAT       -33.9320  -73.6660   -2.3330 O         1 <0>         0.0532
  28631 WAT       -33.9320  -73.6660   -2.0830 O         1 <0>         0.0364
  28632 WAT       -33.9320  -73.6660   -1.8330 O         1 <0>         0.0177
  28633 WAT       -33.9320  -73.6660   -1.5830 O         1 <0>         0.0059
  28634 WAT       -33.9320  -73.6660   -1.3330 O         1 <0>         0.0013
  28635 WAT       -33.9320  -73.6660   -1.0830 O         1 <0>         0.0001
  28636 WAT       -33.9320  -73.6660   -0.8330 O         1 <0>         0.0000
  28637 WAT       -33.9320  -73.6660   -0.5830 O         1 <0>         0.0000
  28638 WAT       -33.9320  -73.6660   -0.3330 O         1 <0>         0.0000
  28639 WAT       -33.9320  -73.6660   -0.0830 O         1 <0>         0.0000
  28640 WAT       -33.9320  -73.4160   -9.8330 O         1 <0>         0.0000
  28641 WAT       -33.9320  -73.4160   -9.5830 O         1 <0>         0.0000
  28642 WAT       -33.9320  -73.4160   -9.3330 O         1 <0>         0.0000
  28643 WAT       -33.9320  -73.4160   -9.0830 O         1 <0>         0.0000
  28644 WAT       -33.9320  -73.4160   -8.8330 O         1 <0>         0.0000
  28645 WAT       -33.9320  -73.4160   -8.5830 O         1 <0>         0.0000
  28646 WAT       -33.9320  -73.4160   -8.3330 O         1 <0>         0.0000
  28647 WAT       -33.9320  -73.4160   -8.0830 O         1 <0>         0.0000
  28648 WAT       -33.9320  -73.4160   -7.8330 O         1 <0>         0.0000
  28649 WAT       -33.9320  -73.4160   -7.5830 O         1 <0>         0.0001
  28650 WAT       -33.9320  -73.4160   -7.3330 O         1 <0>         0.0004
  28651 WAT       -33.9320  -73.4160   -7.0830 O         1 <0>         0.0011
  28652 WAT       -33.9320  -73.4160   -6.8330 O         1 <0>         0.0022
  28653 WAT       -33.9320  -73.4160   -6.5830 O         1 <0>         0.0034
  28654 WAT       -33.9320  -73.4160   -6.3330 O         1 <0>         0.0043
  28655 WAT       -33.9320  -73.4160   -6.0830 O         1 <0>         0.0054
  28656 WAT       -33.9320  -73.4160   -5.8330 O         1 <0>         0.0073
  28657 WAT       -33.9320  -73.4160   -5.5830 O         1 <0>         0.0102
  28658 WAT       -33.9320  -73.4160   -5.3330 O         1 <0>         0.0128
  28659 WAT       -33.9320  -73.4160   -5.0830 O         1 <0>         0.0129
  28660 WAT       -33.9320  -73.4160   -4.8330 O         1 <0>         0.0099
  28661 WAT       -33.9320  -73.4160   -4.5830 O         1 <0>         0.0056
  28662 WAT       -33.9320  -73.4160   -4.3330 O         1 <0>         0.0024
  28663 WAT       -33.9320  -73.4160   -4.0830 O         1 <0>         0.0010
  28664 WAT       -33.9320  -73.4160   -3.8330 O         1 <0>         0.0014
  28665 WAT       -33.9320  -73.4160   -3.5830 O         1 <0>         0.0038
  28666 WAT       -33.9320  -73.4160   -3.3330 O         1 <0>         0.0100
  28667 WAT       -33.9320  -73.4160   -3.0830 O         1 <0>         0.0207
  28668 WAT       -33.9320  -73.4160   -2.8330 O         1 <0>         0.0342
  28669 WAT       -33.9320  -73.4160   -2.5830 O         1 <0>         0.0440
  28670 WAT       -33.9320  -73.4160   -2.3330 O         1 <0>         0.0436
  28671 WAT       -33.9320  -73.4160   -2.0830 O         1 <0>         0.0320
  28672 WAT       -33.9320  -73.4160   -1.8330 O         1 <0>         0.0168
  28673 WAT       -33.9320  -73.4160   -1.5830 O         1 <0>         0.0062
  28674 WAT       -33.9320  -73.4160   -1.3330 O         1 <0>         0.0015
  28675 WAT       -33.9320  -73.4160   -1.0830 O         1 <0>         0.0002
  28676 WAT       -33.9320  -73.4160   -0.8330 O         1 <0>         0.0000
  28677 WAT       -33.9320  -73.4160   -0.5830 O         1 <0>         0.0000
  28678 WAT       -33.9320  -73.4160   -0.3330 O         1 <0>         0.0000
  28679 WAT       -33.9320  -73.4160   -0.0830 O         1 <0>         0.0000
  28680 WAT       -33.9320  -73.1660   -9.8330 O         1 <0>         0.0000
  28681 WAT       -33.9320  -73.1660   -9.5830 O         1 <0>         0.0000
  28682 WAT       -33.9320  -73.1660   -9.3330 O         1 <0>         0.0000
  28683 WAT       -33.9320  -73.1660   -9.0830 O         1 <0>         0.0000
  28684 WAT       -33.9320  -73.1660   -8.8330 O         1 <0>         0.0000
  28685 WAT       -33.9320  -73.1660   -8.5830 O         1 <0>         0.0000
  28686 WAT       -33.9320  -73.1660   -8.3330 O         1 <0>         0.0000
  28687 WAT       -33.9320  -73.1660   -8.0830 O         1 <0>         0.0000
  28688 WAT       -33.9320  -73.1660   -7.8330 O         1 <0>         0.0000
  28689 WAT       -33.9320  -73.1660   -7.5830 O         1 <0>         0.0003
  28690 WAT       -33.9320  -73.1660   -7.3330 O         1 <0>         0.0010
  28691 WAT       -33.9320  -73.1660   -7.0830 O         1 <0>         0.0022
  28692 WAT       -33.9320  -73.1660   -6.8330 O         1 <0>         0.0035
  28693 WAT       -33.9320  -73.1660   -6.5830 O         1 <0>         0.0039
  28694 WAT       -33.9320  -73.1660   -6.3330 O         1 <0>         0.0035
  28695 WAT       -33.9320  -73.1660   -6.0830 O         1 <0>         0.0033
  28696 WAT       -33.9320  -73.1660   -5.8330 O         1 <0>         0.0043
  28697 WAT       -33.9320  -73.1660   -5.5830 O         1 <0>         0.0068
  28698 WAT       -33.9320  -73.1660   -5.3330 O         1 <0>         0.0095
  28699 WAT       -33.9320  -73.1660   -5.0830 O         1 <0>         0.0105
  28700 WAT       -33.9320  -73.1660   -4.8330 O         1 <0>         0.0088
  28701 WAT       -33.9320  -73.1660   -4.5830 O         1 <0>         0.0055
  28702 WAT       -33.9320  -73.1660   -4.3330 O         1 <0>         0.0025
  28703 WAT       -33.9320  -73.1660   -4.0830 O         1 <0>         0.0010
  28704 WAT       -33.9320  -73.1660   -3.8330 O         1 <0>         0.0010
  28705 WAT       -33.9320  -73.1660   -3.5830 O         1 <0>         0.0030
  28706 WAT       -33.9320  -73.1660   -3.3330 O         1 <0>         0.0080
  28707 WAT       -33.9320  -73.1660   -3.0830 O         1 <0>         0.0166
  28708 WAT       -33.9320  -73.1660   -2.8330 O         1 <0>         0.0272
  28709 WAT       -33.9320  -73.1660   -2.5830 O         1 <0>         0.0349
  28710 WAT       -33.9320  -73.1660   -2.3330 O         1 <0>         0.0344
  28711 WAT       -33.9320  -73.1660   -2.0830 O         1 <0>         0.0253
  28712 WAT       -33.9320  -73.1660   -1.8330 O         1 <0>         0.0135
  28713 WAT       -33.9320  -73.1660   -1.5830 O         1 <0>         0.0051
  28714 WAT       -33.9320  -73.1660   -1.3330 O         1 <0>         0.0013
  28715 WAT       -33.9320  -73.1660   -1.0830 O         1 <0>         0.0002
  28716 WAT       -33.9320  -73.1660   -0.8330 O         1 <0>         0.0000
  28717 WAT       -33.9320  -73.1660   -0.5830 O         1 <0>         0.0000
  28718 WAT       -33.9320  -73.1660   -0.3330 O         1 <0>         0.0000
  28719 WAT       -33.9320  -73.1660   -0.0830 O         1 <0>         0.0000
  28720 WAT       -33.9320  -72.9160   -9.8330 O         1 <0>         0.0000
  28721 WAT       -33.9320  -72.9160   -9.5830 O         1 <0>         0.0000
  28722 WAT       -33.9320  -72.9160   -9.3330 O         1 <0>         0.0000
  28723 WAT       -33.9320  -72.9160   -9.0830 O         1 <0>         0.0000
  28724 WAT       -33.9320  -72.9160   -8.8330 O         1 <0>         0.0000
  28725 WAT       -33.9320  -72.9160   -8.5830 O         1 <0>         0.0000
  28726 WAT       -33.9320  -72.9160   -8.3330 O         1 <0>         0.0000
  28727 WAT       -33.9320  -72.9160   -8.0830 O         1 <0>         0.0000
  28728 WAT       -33.9320  -72.9160   -7.8330 O         1 <0>         0.0002
  28729 WAT       -33.9320  -72.9160   -7.5830 O         1 <0>         0.0011
  28730 WAT       -33.9320  -72.9160   -7.3330 O         1 <0>         0.0027
  28731 WAT       -33.9320  -72.9160   -7.0830 O         1 <0>         0.0044
  28732 WAT       -33.9320  -72.9160   -6.8330 O         1 <0>         0.0054
  28733 WAT       -33.9320  -72.9160   -6.5830 O         1 <0>         0.0049
  28734 WAT       -33.9320  -72.9160   -6.3330 O         1 <0>         0.0032
  28735 WAT       -33.9320  -72.9160   -6.0830 O         1 <0>         0.0020
  28736 WAT       -33.9320  -72.9160   -5.8330 O         1 <0>         0.0021
  28737 WAT       -33.9320  -72.9160   -5.5830 O         1 <0>         0.0036
  28738 WAT       -33.9320  -72.9160   -5.3330 O         1 <0>         0.0055
  28739 WAT       -33.9320  -72.9160   -5.0830 O         1 <0>         0.0067
  28740 WAT       -33.9320  -72.9160   -4.8330 O         1 <0>         0.0064
  28741 WAT       -33.9320  -72.9160   -4.5830 O         1 <0>         0.0047
  28742 WAT       -33.9320  -72.9160   -4.3330 O         1 <0>         0.0025
  28743 WAT       -33.9320  -72.9160   -4.0830 O         1 <0>         0.0011
  28744 WAT       -33.9320  -72.9160   -3.8330 O         1 <0>         0.0009
  28745 WAT       -33.9320  -72.9160   -3.5830 O         1 <0>         0.0026
  28746 WAT       -33.9320  -72.9160   -3.3330 O         1 <0>         0.0071
  28747 WAT       -33.9320  -72.9160   -3.0830 O         1 <0>         0.0145
  28748 WAT       -33.9320  -72.9160   -2.8330 O         1 <0>         0.0225
  28749 WAT       -33.9320  -72.9160   -2.5830 O         1 <0>         0.0269
  28750 WAT       -33.9320  -72.9160   -2.3330 O         1 <0>         0.0245
  28751 WAT       -33.9320  -72.9160   -2.0830 O         1 <0>         0.0168
  28752 WAT       -33.9320  -72.9160   -1.8330 O         1 <0>         0.0085
  28753 WAT       -33.9320  -72.9160   -1.5830 O         1 <0>         0.0031
  28754 WAT       -33.9320  -72.9160   -1.3330 O         1 <0>         0.0008
  28755 WAT       -33.9320  -72.9160   -1.0830 O         1 <0>         0.0001
  28756 WAT       -33.9320  -72.9160   -0.8330 O         1 <0>         0.0000
  28757 WAT       -33.9320  -72.9160   -0.5830 O         1 <0>         0.0000
  28758 WAT       -33.9320  -72.9160   -0.3330 O         1 <0>         0.0000
  28759 WAT       -33.9320  -72.9160   -0.0830 O         1 <0>         0.0000
  28760 WAT       -33.9320  -72.6660   -9.8330 O         1 <0>         0.0000
  28761 WAT       -33.9320  -72.6660   -9.5830 O         1 <0>         0.0000
  28762 WAT       -33.9320  -72.6660   -9.3330 O         1 <0>         0.0000
  28763 WAT       -33.9320  -72.6660   -9.0830 O         1 <0>         0.0000
  28764 WAT       -33.9320  -72.6660   -8.8330 O         1 <0>         0.0000
  28765 WAT       -33.9320  -72.6660   -8.5830 O         1 <0>         0.0000
  28766 WAT       -33.9320  -72.6660   -8.3330 O         1 <0>         0.0000
  28767 WAT       -33.9320  -72.6660   -8.0830 O         1 <0>         0.0001
  28768 WAT       -33.9320  -72.6660   -7.8330 O         1 <0>         0.0010
  28769 WAT       -33.9320  -72.6660   -7.5830 O         1 <0>         0.0036
  28770 WAT       -33.9320  -72.6660   -7.3330 O         1 <0>         0.0068
  28771 WAT       -33.9320  -72.6660   -7.0830 O         1 <0>         0.0084
  28772 WAT       -33.9320  -72.6660   -6.8330 O         1 <0>         0.0077
  28773 WAT       -33.9320  -72.6660   -6.5830 O         1 <0>         0.0054
  28774 WAT       -33.9320  -72.6660   -6.3330 O         1 <0>         0.0030
  28775 WAT       -33.9320  -72.6660   -6.0830 O         1 <0>         0.0014
  28776 WAT       -33.9320  -72.6660   -5.8330 O         1 <0>         0.0010
  28777 WAT       -33.9320  -72.6660   -5.5830 O         1 <0>         0.0016
  28778 WAT       -33.9320  -72.6660   -5.3330 O         1 <0>         0.0027
  28779 WAT       -33.9320  -72.6660   -5.0830 O         1 <0>         0.0037
  28780 WAT       -33.9320  -72.6660   -4.8330 O         1 <0>         0.0042
  28781 WAT       -33.9320  -72.6660   -4.5830 O         1 <0>         0.0036
  28782 WAT       -33.9320  -72.6660   -4.3330 O         1 <0>         0.0022
  28783 WAT       -33.9320  -72.6660   -4.0830 O         1 <0>         0.0010
  28784 WAT       -33.9320  -72.6660   -3.8330 O         1 <0>         0.0007
  28785 WAT       -33.9320  -72.6660   -3.5830 O         1 <0>         0.0019
  28786 WAT       -33.9320  -72.6660   -3.3330 O         1 <0>         0.0054
  28787 WAT       -33.9320  -72.6660   -3.0830 O         1 <0>         0.0108
  28788 WAT       -33.9320  -72.6660   -2.8330 O         1 <0>         0.0158
  28789 WAT       -33.9320  -72.6660   -2.5830 O         1 <0>         0.0172
  28790 WAT       -33.9320  -72.6660   -2.3330 O         1 <0>         0.0140
  28791 WAT       -33.9320  -72.6660   -2.0830 O         1 <0>         0.0086
  28792 WAT       -33.9320  -72.6660   -1.8330 O         1 <0>         0.0039
  28793 WAT       -33.9320  -72.6660   -1.5830 O         1 <0>         0.0013
  28794 WAT       -33.9320  -72.6660   -1.3330 O         1 <0>         0.0003
  28795 WAT       -33.9320  -72.6660   -1.0830 O         1 <0>         0.0000
  28796 WAT       -33.9320  -72.6660   -0.8330 O         1 <0>         0.0000
  28797 WAT       -33.9320  -72.6660   -0.5830 O         1 <0>         0.0000
  28798 WAT       -33.9320  -72.6660   -0.3330 O         1 <0>         0.0000
  28799 WAT       -33.9320  -72.6660   -0.0830 O         1 <0>         0.0000
  28800 WAT       -33.9320  -72.4160   -9.8330 O         1 <0>         0.0000
  28801 WAT       -33.9320  -72.4160   -9.5830 O         1 <0>         0.0000
  28802 WAT       -33.9320  -72.4160   -9.3330 O         1 <0>         0.0000
  28803 WAT       -33.9320  -72.4160   -9.0830 O         1 <0>         0.0000
  28804 WAT       -33.9320  -72.4160   -8.8330 O         1 <0>         0.0000
  28805 WAT       -33.9320  -72.4160   -8.5830 O         1 <0>         0.0000
  28806 WAT       -33.9320  -72.4160   -8.3330 O         1 <0>         0.0000
  28807 WAT       -33.9320  -72.4160   -8.0830 O         1 <0>         0.0005
  28808 WAT       -33.9320  -72.4160   -7.8330 O         1 <0>         0.0033
  28809 WAT       -33.9320  -72.4160   -7.5830 O         1 <0>         0.0091
  28810 WAT       -33.9320  -72.4160   -7.3330 O         1 <0>         0.0142
  28811 WAT       -33.9320  -72.4160   -7.0830 O         1 <0>         0.0143
  28812 WAT       -33.9320  -72.4160   -6.8330 O         1 <0>         0.0099
  28813 WAT       -33.9320  -72.4160   -6.5830 O         1 <0>         0.0053
  28814 WAT       -33.9320  -72.4160   -6.3330 O         1 <0>         0.0024
  28815 WAT       -33.9320  -72.4160   -6.0830 O         1 <0>         0.0010
  28816 WAT       -33.9320  -72.4160   -5.8330 O         1 <0>         0.0006
  28817 WAT       -33.9320  -72.4160   -5.5830 O         1 <0>         0.0009
  28818 WAT       -33.9320  -72.4160   -5.3330 O         1 <0>         0.0014
  28819 WAT       -33.9320  -72.4160   -5.0830 O         1 <0>         0.0020
  28820 WAT       -33.9320  -72.4160   -4.8330 O         1 <0>         0.0025
  28821 WAT       -33.9320  -72.4160   -4.5830 O         1 <0>         0.0023
  28822 WAT       -33.9320  -72.4160   -4.3330 O         1 <0>         0.0016
  28823 WAT       -33.9320  -72.4160   -4.0830 O         1 <0>         0.0007
  28824 WAT       -33.9320  -72.4160   -3.8330 O         1 <0>         0.0004
  28825 WAT       -33.9320  -72.4160   -3.5830 O         1 <0>         0.0010
  28826 WAT       -33.9320  -72.4160   -3.3330 O         1 <0>         0.0029
  28827 WAT       -33.9320  -72.4160   -3.0830 O         1 <0>         0.0058
  28828 WAT       -33.9320  -72.4160   -2.8330 O         1 <0>         0.0080
  28829 WAT       -33.9320  -72.4160   -2.5830 O         1 <0>         0.0079
  28830 WAT       -33.9320  -72.4160   -2.3330 O         1 <0>         0.0058
  28831 WAT       -33.9320  -72.4160   -2.0830 O         1 <0>         0.0031
  28832 WAT       -33.9320  -72.4160   -1.8330 O         1 <0>         0.0012
  28833 WAT       -33.9320  -72.4160   -1.5830 O         1 <0>         0.0003
  28834 WAT       -33.9320  -72.4160   -1.3330 O         1 <0>         0.0000
  28835 WAT       -33.9320  -72.4160   -1.0830 O         1 <0>         0.0000
  28836 WAT       -33.9320  -72.4160   -0.8330 O         1 <0>         0.0000
  28837 WAT       -33.9320  -72.4160   -0.5830 O         1 <0>         0.0000
  28838 WAT       -33.9320  -72.4160   -0.3330 O         1 <0>         0.0000
  28839 WAT       -33.9320  -72.4160   -0.0830 O         1 <0>         0.0000
  28840 WAT       -33.9320  -72.1660   -9.8330 O         1 <0>         0.0000
  28841 WAT       -33.9320  -72.1660   -9.5830 O         1 <0>         0.0000
  28842 WAT       -33.9320  -72.1660   -9.3330 O         1 <0>         0.0000
  28843 WAT       -33.9320  -72.1660   -9.0830 O         1 <0>         0.0000
  28844 WAT       -33.9320  -72.1660   -8.8330 O         1 <0>         0.0000
  28845 WAT       -33.9320  -72.1660   -8.5830 O         1 <0>         0.0000
  28846 WAT       -33.9320  -72.1660   -8.3330 O         1 <0>         0.0001
  28847 WAT       -33.9320  -72.1660   -8.0830 O         1 <0>         0.0015
  28848 WAT       -33.9320  -72.1660   -7.8330 O         1 <0>         0.0072
  28849 WAT       -33.9320  -72.1660   -7.5830 O         1 <0>         0.0170
  28850 WAT       -33.9320  -72.1660   -7.3330 O         1 <0>         0.0236
  28851 WAT       -33.9320  -72.1660   -7.0830 O         1 <0>         0.0206
  28852 WAT       -33.9320  -72.1660   -6.8330 O         1 <0>         0.0118
  28853 WAT       -33.9320  -72.1660   -6.5830 O         1 <0>         0.0046
  28854 WAT       -33.9320  -72.1660   -6.3330 O         1 <0>         0.0016
  28855 WAT       -33.9320  -72.1660   -6.0830 O         1 <0>         0.0006
  28856 WAT       -33.9320  -72.1660   -5.8330 O         1 <0>         0.0005
  28857 WAT       -33.9320  -72.1660   -5.5830 O         1 <0>         0.0007
  28858 WAT       -33.9320  -72.1660   -5.3330 O         1 <0>         0.0008
  28859 WAT       -33.9320  -72.1660   -5.0830 O         1 <0>         0.0010
  28860 WAT       -33.9320  -72.1660   -4.8330 O         1 <0>         0.0012
  28861 WAT       -33.9320  -72.1660   -4.5830 O         1 <0>         0.0012
  28862 WAT       -33.9320  -72.1660   -4.3330 O         1 <0>         0.0008
  28863 WAT       -33.9320  -72.1660   -4.0830 O         1 <0>         0.0004
  28864 WAT       -33.9320  -72.1660   -3.8330 O         1 <0>         0.0002
  28865 WAT       -33.9320  -72.1660   -3.5830 O         1 <0>         0.0003
  28866 WAT       -33.9320  -72.1660   -3.3330 O         1 <0>         0.0010
  28867 WAT       -33.9320  -72.1660   -3.0830 O         1 <0>         0.0020
  28868 WAT       -33.9320  -72.1660   -2.8330 O         1 <0>         0.0026
  28869 WAT       -33.9320  -72.1660   -2.5830 O         1 <0>         0.0025
  28870 WAT       -33.9320  -72.1660   -2.3330 O         1 <0>         0.0016
  28871 WAT       -33.9320  -72.1660   -2.0830 O         1 <0>         0.0007
  28872 WAT       -33.9320  -72.1660   -1.8330 O         1 <0>         0.0002
  28873 WAT       -33.9320  -72.1660   -1.5830 O         1 <0>         0.0000
  28874 WAT       -33.9320  -72.1660   -1.3330 O         1 <0>         0.0000
  28875 WAT       -33.9320  -72.1660   -1.0830 O         1 <0>         0.0000
  28876 WAT       -33.9320  -72.1660   -0.8330 O         1 <0>         0.0000
  28877 WAT       -33.9320  -72.1660   -0.5830 O         1 <0>         0.0000
  28878 WAT       -33.9320  -72.1660   -0.3330 O         1 <0>         0.0000
  28879 WAT       -33.9320  -72.1660   -0.0830 O         1 <0>         0.0000
  28880 WAT       -33.9320  -71.9160   -9.8330 O         1 <0>         0.0000
  28881 WAT       -33.9320  -71.9160   -9.5830 O         1 <0>         0.0000
  28882 WAT       -33.9320  -71.9160   -9.3330 O         1 <0>         0.0000
  28883 WAT       -33.9320  -71.9160   -9.0830 O         1 <0>         0.0000
  28884 WAT       -33.9320  -71.9160   -8.8330 O         1 <0>         0.0000
  28885 WAT       -33.9320  -71.9160   -8.5830 O         1 <0>         0.0000
  28886 WAT       -33.9320  -71.9160   -8.3330 O         1 <0>         0.0003
  28887 WAT       -33.9320  -71.9160   -8.0830 O         1 <0>         0.0027
  28888 WAT       -33.9320  -71.9160   -7.8330 O         1 <0>         0.0108
  28889 WAT       -33.9320  -71.9160   -7.5830 O         1 <0>         0.0234
  28890 WAT       -33.9320  -71.9160   -7.3330 O         1 <0>         0.0301
  28891 WAT       -33.9320  -71.9160   -7.0830 O         1 <0>         0.0243
  28892 WAT       -33.9320  -71.9160   -6.8330 O         1 <0>         0.0123
  28893 WAT       -33.9320  -71.9160   -6.5830 O         1 <0>         0.0040
  28894 WAT       -33.9320  -71.9160   -6.3330 O         1 <0>         0.0010
  28895 WAT       -33.9320  -71.9160   -6.0830 O         1 <0>         0.0004
  28896 WAT       -33.9320  -71.9160   -5.8330 O         1 <0>         0.0004
  28897 WAT       -33.9320  -71.9160   -5.5830 O         1 <0>         0.0005
  28898 WAT       -33.9320  -71.9160   -5.3330 O         1 <0>         0.0005
  28899 WAT       -33.9320  -71.9160   -5.0830 O         1 <0>         0.0005
  28900 WAT       -33.9320  -71.9160   -4.8330 O         1 <0>         0.0005
  28901 WAT       -33.9320  -71.9160   -4.5830 O         1 <0>         0.0004
  28902 WAT       -33.9320  -71.9160   -4.3330 O         1 <0>         0.0003
  28903 WAT       -33.9320  -71.9160   -4.0830 O         1 <0>         0.0001
  28904 WAT       -33.9320  -71.9160   -3.8330 O         1 <0>         0.0000
  28905 WAT       -33.9320  -71.9160   -3.5830 O         1 <0>         0.0000
  28906 WAT       -33.9320  -71.9160   -3.3330 O         1 <0>         0.0002
  28907 WAT       -33.9320  -71.9160   -3.0830 O         1 <0>         0.0003
  28908 WAT       -33.9320  -71.9160   -2.8330 O         1 <0>         0.0005
  28909 WAT       -33.9320  -71.9160   -2.5830 O         1 <0>         0.0004
  28910 WAT       -33.9320  -71.9160   -2.3330 O         1 <0>         0.0002
  28911 WAT       -33.9320  -71.9160   -2.0830 O         1 <0>         0.0001
  28912 WAT       -33.9320  -71.9160   -1.8330 O         1 <0>         0.0000
  28913 WAT       -33.9320  -71.9160   -1.5830 O         1 <0>         0.0000
  28914 WAT       -33.9320  -71.9160   -1.3330 O         1 <0>         0.0000
  28915 WAT       -33.9320  -71.9160   -1.0830 O         1 <0>         0.0000
  28916 WAT       -33.9320  -71.9160   -0.8330 O         1 <0>         0.0000
  28917 WAT       -33.9320  -71.9160   -0.5830 O         1 <0>         0.0000
  28918 WAT       -33.9320  -71.9160   -0.3330 O         1 <0>         0.0000
  28919 WAT       -33.9320  -71.9160   -0.0830 O         1 <0>         0.0000
  28920 WAT       -33.9320  -71.6660   -9.8330 O         1 <0>         0.0000
  28921 WAT       -33.9320  -71.6660   -9.5830 O         1 <0>         0.0000
  28922 WAT       -33.9320  -71.6660   -9.3330 O         1 <0>         0.0000
  28923 WAT       -33.9320  -71.6660   -9.0830 O         1 <0>         0.0000
  28924 WAT       -33.9320  -71.6660   -8.8330 O         1 <0>         0.0000
  28925 WAT       -33.9320  -71.6660   -8.5830 O         1 <0>         0.0000
  28926 WAT       -33.9320  -71.6660   -8.3330 O         1 <0>         0.0003
  28927 WAT       -33.9320  -71.6660   -8.0830 O         1 <0>         0.0031
  28928 WAT       -33.9320  -71.6660   -7.8330 O         1 <0>         0.0116
  28929 WAT       -33.9320  -71.6660   -7.5830 O         1 <0>         0.0237
  28930 WAT       -33.9320  -71.6660   -7.3330 O         1 <0>         0.0293
  28931 WAT       -33.9320  -71.6660   -7.0830 O         1 <0>         0.0227
  28932 WAT       -33.9320  -71.6660   -6.8330 O         1 <0>         0.0110
  28933 WAT       -33.9320  -71.6660   -6.5830 O         1 <0>         0.0034
  28934 WAT       -33.9320  -71.6660   -6.3330 O         1 <0>         0.0009
  28935 WAT       -33.9320  -71.6660   -6.0830 O         1 <0>         0.0003
  28936 WAT       -33.9320  -71.6660   -5.8330 O         1 <0>         0.0003
  28937 WAT       -33.9320  -71.6660   -5.5830 O         1 <0>         0.0003
  28938 WAT       -33.9320  -71.6660   -5.3330 O         1 <0>         0.0002
  28939 WAT       -33.9320  -71.6660   -5.0830 O         1 <0>         0.0002
  28940 WAT       -33.9320  -71.6660   -4.8330 O         1 <0>         0.0001
  28941 WAT       -33.9320  -71.6660   -4.5830 O         1 <0>         0.0001
  28942 WAT       -33.9320  -71.6660   -4.3330 O         1 <0>         0.0001
  28943 WAT       -33.9320  -71.6660   -4.0830 O         1 <0>         0.0000
  28944 WAT       -33.9320  -71.6660   -3.8330 O         1 <0>         0.0000
  28945 WAT       -33.9320  -71.6660   -3.5830 O         1 <0>         0.0000
  28946 WAT       -33.9320  -71.6660   -3.3330 O         1 <0>         0.0000
  28947 WAT       -33.9320  -71.6660   -3.0830 O         1 <0>         0.0000
  28948 WAT       -33.9320  -71.6660   -2.8330 O         1 <0>         0.0000
  28949 WAT       -33.9320  -71.6660   -2.5830 O         1 <0>         0.0000
  28950 WAT       -33.9320  -71.6660   -2.3330 O         1 <0>         0.0000
  28951 WAT       -33.9320  -71.6660   -2.0830 O         1 <0>         0.0000
  28952 WAT       -33.9320  -71.6660   -1.8330 O         1 <0>         0.0000
  28953 WAT       -33.9320  -71.6660   -1.5830 O         1 <0>         0.0000
  28954 WAT       -33.9320  -71.6660   -1.3330 O         1 <0>         0.0000
  28955 WAT       -33.9320  -71.6660   -1.0830 O         1 <0>         0.0000
  28956 WAT       -33.9320  -71.6660   -0.8330 O         1 <0>         0.0000
  28957 WAT       -33.9320  -71.6660   -0.5830 O         1 <0>         0.0000
  28958 WAT       -33.9320  -71.6660   -0.3330 O         1 <0>         0.0000
  28959 WAT       -33.9320  -71.6660   -0.0830 O         1 <0>         0.0000
  28960 WAT       -33.9320  -71.4160   -9.8330 O         1 <0>         0.0000
  28961 WAT       -33.9320  -71.4160   -9.5830 O         1 <0>         0.0000
  28962 WAT       -33.9320  -71.4160   -9.3330 O         1 <0>         0.0000
  28963 WAT       -33.9320  -71.4160   -9.0830 O         1 <0>         0.0000
  28964 WAT       -33.9320  -71.4160   -8.8330 O         1 <0>         0.0000
  28965 WAT       -33.9320  -71.4160   -8.5830 O         1 <0>         0.0000
  28966 WAT       -33.9320  -71.4160   -8.3330 O         1 <0>         0.0003
  28967 WAT       -33.9320  -71.4160   -8.0830 O         1 <0>         0.0025
  28968 WAT       -33.9320  -71.4160   -7.8330 O         1 <0>         0.0090
  28969 WAT       -33.9320  -71.4160   -7.5830 O         1 <0>         0.0182
  28970 WAT       -33.9320  -71.4160   -7.3330 O         1 <0>         0.0223
  28971 WAT       -33.9320  -71.4160   -7.0830 O         1 <0>         0.0172
  28972 WAT       -33.9320  -71.4160   -6.8330 O         1 <0>         0.0085
  28973 WAT       -33.9320  -71.4160   -6.5830 O         1 <0>         0.0029
  28974 WAT       -33.9320  -71.4160   -6.3330 O         1 <0>         0.0010
  28975 WAT       -33.9320  -71.4160   -6.0830 O         1 <0>         0.0004
  28976 WAT       -33.9320  -71.4160   -5.8330 O         1 <0>         0.0002
  28977 WAT       -33.9320  -71.4160   -5.5830 O         1 <0>         0.0001
  28978 WAT       -33.9320  -71.4160   -5.3330 O         1 <0>         0.0001
  28979 WAT       -33.9320  -71.4160   -5.0830 O         1 <0>         0.0000
  28980 WAT       -33.9320  -71.4160   -4.8330 O         1 <0>         0.0000
  28981 WAT       -33.9320  -71.4160   -4.5830 O         1 <0>         0.0000
  28982 WAT       -33.9320  -71.4160   -4.3330 O         1 <0>         0.0000
  28983 WAT       -33.9320  -71.4160   -4.0830 O         1 <0>         0.0000
  28984 WAT       -33.9320  -71.4160   -3.8330 O         1 <0>         0.0000
  28985 WAT       -33.9320  -71.4160   -3.5830 O         1 <0>         0.0000
  28986 WAT       -33.9320  -71.4160   -3.3330 O         1 <0>         0.0000
  28987 WAT       -33.9320  -71.4160   -3.0830 O         1 <0>         0.0000
  28988 WAT       -33.9320  -71.4160   -2.8330 O         1 <0>         0.0000
  28989 WAT       -33.9320  -71.4160   -2.5830 O         1 <0>         0.0000
  28990 WAT       -33.9320  -71.4160   -2.3330 O         1 <0>         0.0000
  28991 WAT       -33.9320  -71.4160   -2.0830 O         1 <0>         0.0000
  28992 WAT       -33.9320  -71.4160   -1.8330 O         1 <0>         0.0000
  28993 WAT       -33.9320  -71.4160   -1.5830 O         1 <0>         0.0000
  28994 WAT       -33.9320  -71.4160   -1.3330 O         1 <0>         0.0000
  28995 WAT       -33.9320  -71.4160   -1.0830 O         1 <0>         0.0000
  28996 WAT       -33.9320  -71.4160   -0.8330 O         1 <0>         0.0000
  28997 WAT       -33.9320  -71.4160   -0.5830 O         1 <0>         0.0000
  28998 WAT       -33.9320  -71.4160   -0.3330 O         1 <0>         0.0000
  28999 WAT       -33.9320  -71.4160   -0.0830 O         1 <0>         0.0000
  29000 WAT       -33.9320  -71.1660   -9.8330 O         1 <0>         0.0000
  29001 WAT       -33.9320  -71.1660   -9.5830 O         1 <0>         0.0000
  29002 WAT       -33.9320  -71.1660   -9.3330 O         1 <0>         0.0000
  29003 WAT       -33.9320  -71.1660   -9.0830 O         1 <0>         0.0000
  29004 WAT       -33.9320  -71.1660   -8.8330 O         1 <0>         0.0000
  29005 WAT       -33.9320  -71.1660   -8.5830 O         1 <0>         0.0000
  29006 WAT       -33.9320  -71.1660   -8.3330 O         1 <0>         0.0002
  29007 WAT       -33.9320  -71.1660   -8.0830 O         1 <0>         0.0014
  29008 WAT       -33.9320  -71.1660   -7.8330 O         1 <0>         0.0053
  29009 WAT       -33.9320  -71.1660   -7.5830 O         1 <0>         0.0111
  29010 WAT       -33.9320  -71.1660   -7.3330 O         1 <0>         0.0141
  29011 WAT       -33.9320  -71.1660   -7.0830 O         1 <0>         0.0117
  29012 WAT       -33.9320  -71.1660   -6.8330 O         1 <0>         0.0068
  29013 WAT       -33.9320  -71.1660   -6.5830 O         1 <0>         0.0033
  29014 WAT       -33.9320  -71.1660   -6.3330 O         1 <0>         0.0017
  29015 WAT       -33.9320  -71.1660   -6.0830 O         1 <0>         0.0008
  29016 WAT       -33.9320  -71.1660   -5.8330 O         1 <0>         0.0003
  29017 WAT       -33.9320  -71.1660   -5.5830 O         1 <0>         0.0000
  29018 WAT       -33.9320  -71.1660   -5.3330 O         1 <0>         0.0000
  29019 WAT       -33.9320  -71.1660   -5.0830 O         1 <0>         0.0000
  29020 WAT       -33.9320  -71.1660   -4.8330 O         1 <0>         0.0000
  29021 WAT       -33.9320  -71.1660   -4.5830 O         1 <0>         0.0000
  29022 WAT       -33.9320  -71.1660   -4.3330 O         1 <0>         0.0000
  29023 WAT       -33.9320  -71.1660   -4.0830 O         1 <0>         0.0000
  29024 WAT       -33.9320  -71.1660   -3.8330 O         1 <0>         0.0000
  29025 WAT       -33.9320  -71.1660   -3.5830 O         1 <0>         0.0000
  29026 WAT       -33.9320  -71.1660   -3.3330 O         1 <0>         0.0000
  29027 WAT       -33.9320  -71.1660   -3.0830 O         1 <0>         0.0000
  29028 WAT       -33.9320  -71.1660   -2.8330 O         1 <0>         0.0000
  29029 WAT       -33.9320  -71.1660   -2.5830 O         1 <0>         0.0000
  29030 WAT       -33.9320  -71.1660   -2.3330 O         1 <0>         0.0000
  29031 WAT       -33.9320  -71.1660   -2.0830 O         1 <0>         0.0000
  29032 WAT       -33.9320  -71.1660   -1.8330 O         1 <0>         0.0000
  29033 WAT       -33.9320  -71.1660   -1.5830 O         1 <0>         0.0000
  29034 WAT       -33.9320  -71.1660   -1.3330 O         1 <0>         0.0000
  29035 WAT       -33.9320  -71.1660   -1.0830 O         1 <0>         0.0000
  29036 WAT       -33.9320  -71.1660   -0.8330 O         1 <0>         0.0000
  29037 WAT       -33.9320  -71.1660   -0.5830 O         1 <0>         0.0000
  29038 WAT       -33.9320  -71.1660   -0.3330 O         1 <0>         0.0000
  29039 WAT       -33.9320  -71.1660   -0.0830 O         1 <0>         0.0000
  29040 WAT       -33.9320  -70.9160   -9.8330 O         1 <0>         0.0000
  29041 WAT       -33.9320  -70.9160   -9.5830 O         1 <0>         0.0000
  29042 WAT       -33.9320  -70.9160   -9.3330 O         1 <0>         0.0000
  29043 WAT       -33.9320  -70.9160   -9.0830 O         1 <0>         0.0000
  29044 WAT       -33.9320  -70.9160   -8.8330 O         1 <0>         0.0000
  29045 WAT       -33.9320  -70.9160   -8.5830 O         1 <0>         0.0000
  29046 WAT       -33.9320  -70.9160   -8.3330 O         1 <0>         0.0001
  29047 WAT       -33.9320  -70.9160   -8.0830 O         1 <0>         0.0007
  29048 WAT       -33.9320  -70.9160   -7.8330 O         1 <0>         0.0027
  29049 WAT       -33.9320  -70.9160   -7.5830 O         1 <0>         0.0061
  29050 WAT       -33.9320  -70.9160   -7.3330 O         1 <0>         0.0089
  29051 WAT       -33.9320  -70.9160   -7.0830 O         1 <0>         0.0090
  29052 WAT       -33.9320  -70.9160   -6.8330 O         1 <0>         0.0074
  29053 WAT       -33.9320  -70.9160   -6.5830 O         1 <0>         0.0057
  29054 WAT       -33.9320  -70.9160   -6.3330 O         1 <0>         0.0041
  29055 WAT       -33.9320  -70.9160   -6.0830 O         1 <0>         0.0022
  29056 WAT       -33.9320  -70.9160   -5.8330 O         1 <0>         0.0007
  29057 WAT       -33.9320  -70.9160   -5.5830 O         1 <0>         0.0001
  29058 WAT       -33.9320  -70.9160   -5.3330 O         1 <0>         0.0000
  29059 WAT       -33.9320  -70.9160   -5.0830 O         1 <0>         0.0000
  29060 WAT       -33.9320  -70.9160   -4.8330 O         1 <0>         0.0000
  29061 WAT       -33.9320  -70.9160   -4.5830 O         1 <0>         0.0000
  29062 WAT       -33.9320  -70.9160   -4.3330 O         1 <0>         0.0000
  29063 WAT       -33.9320  -70.9160   -4.0830 O         1 <0>         0.0000
  29064 WAT       -33.9320  -70.9160   -3.8330 O         1 <0>         0.0000
  29065 WAT       -33.9320  -70.9160   -3.5830 O         1 <0>         0.0000
  29066 WAT       -33.9320  -70.9160   -3.3330 O         1 <0>         0.0000
  29067 WAT       -33.9320  -70.9160   -3.0830 O         1 <0>         0.0000
  29068 WAT       -33.9320  -70.9160   -2.8330 O         1 <0>         0.0000
  29069 WAT       -33.9320  -70.9160   -2.5830 O         1 <0>         0.0000
  29070 WAT       -33.9320  -70.9160   -2.3330 O         1 <0>         0.0000
  29071 WAT       -33.9320  -70.9160   -2.0830 O         1 <0>         0.0000
  29072 WAT       -33.9320  -70.9160   -1.8330 O         1 <0>         0.0000
  29073 WAT       -33.9320  -70.9160   -1.5830 O         1 <0>         0.0000
  29074 WAT       -33.9320  -70.9160   -1.3330 O         1 <0>         0.0000
  29075 WAT       -33.9320  -70.9160   -1.0830 O         1 <0>         0.0000
  29076 WAT       -33.9320  -70.9160   -0.8330 O         1 <0>         0.0000
  29077 WAT       -33.9320  -70.9160   -0.5830 O         1 <0>         0.0000
  29078 WAT       -33.9320  -70.9160   -0.3330 O         1 <0>         0.0000
  29079 WAT       -33.9320  -70.9160   -0.0830 O         1 <0>         0.0000
  29080 WAT       -33.9320  -70.6660   -9.8330 O         1 <0>         0.0000
  29081 WAT       -33.9320  -70.6660   -9.5830 O         1 <0>         0.0000
  29082 WAT       -33.9320  -70.6660   -9.3330 O         1 <0>         0.0000
  29083 WAT       -33.9320  -70.6660   -9.0830 O         1 <0>         0.0000
  29084 WAT       -33.9320  -70.6660   -8.8330 O         1 <0>         0.0000
  29085 WAT       -33.9320  -70.6660   -8.5830 O         1 <0>         0.0000
  29086 WAT       -33.9320  -70.6660   -8.3330 O         1 <0>         0.0000
  29087 WAT       -33.9320  -70.6660   -8.0830 O         1 <0>         0.0003
  29088 WAT       -33.9320  -70.6660   -7.8330 O         1 <0>         0.0014
  29089 WAT       -33.9320  -70.6660   -7.5830 O         1 <0>         0.0038
  29090 WAT       -33.9320  -70.6660   -7.3330 O         1 <0>         0.0067
  29091 WAT       -33.9320  -70.6660   -7.0830 O         1 <0>         0.0087
  29092 WAT       -33.9320  -70.6660   -6.8330 O         1 <0>         0.0097
  29093 WAT       -33.9320  -70.6660   -6.5830 O         1 <0>         0.0097
  29094 WAT       -33.9320  -70.6660   -6.3330 O         1 <0>         0.0080
  29095 WAT       -33.9320  -70.6660   -6.0830 O         1 <0>         0.0046
  29096 WAT       -33.9320  -70.6660   -5.8330 O         1 <0>         0.0015
  29097 WAT       -33.9320  -70.6660   -5.5830 O         1 <0>         0.0002
  29098 WAT       -33.9320  -70.6660   -5.3330 O         1 <0>         0.0000
  29099 WAT       -33.9320  -70.6660   -5.0830 O         1 <0>         0.0000
  29100 WAT       -33.9320  -70.6660   -4.8330 O         1 <0>         0.0000
  29101 WAT       -33.9320  -70.6660   -4.5830 O         1 <0>         0.0000
  29102 WAT       -33.9320  -70.6660   -4.3330 O         1 <0>         0.0000
  29103 WAT       -33.9320  -70.6660   -4.0830 O         1 <0>         0.0000
  29104 WAT       -33.9320  -70.6660   -3.8330 O         1 <0>         0.0000
  29105 WAT       -33.9320  -70.6660   -3.5830 O         1 <0>         0.0000
  29106 WAT       -33.9320  -70.6660   -3.3330 O         1 <0>         0.0000
  29107 WAT       -33.9320  -70.6660   -3.0830 O         1 <0>         0.0000
  29108 WAT       -33.9320  -70.6660   -2.8330 O         1 <0>         0.0000
  29109 WAT       -33.9320  -70.6660   -2.5830 O         1 <0>         0.0000
  29110 WAT       -33.9320  -70.6660   -2.3330 O         1 <0>         0.0000
  29111 WAT       -33.9320  -70.6660   -2.0830 O         1 <0>         0.0000
  29112 WAT       -33.9320  -70.6660   -1.8330 O         1 <0>         0.0000
  29113 WAT       -33.9320  -70.6660   -1.5830 O         1 <0>         0.0000
  29114 WAT       -33.9320  -70.6660   -1.3330 O         1 <0>         0.0000
  29115 WAT       -33.9320  -70.6660   -1.0830 O         1 <0>         0.0000
  29116 WAT       -33.9320  -70.6660   -0.8330 O         1 <0>         0.0000
  29117 WAT       -33.9320  -70.6660   -0.5830 O         1 <0>         0.0000
  29118 WAT       -33.9320  -70.6660   -0.3330 O         1 <0>         0.0000
  29119 WAT       -33.9320  -70.6660   -0.0830 O         1 <0>         0.0000
  29120 WAT       -33.9320  -70.4160   -9.8330 O         1 <0>         0.0000
  29121 WAT       -33.9320  -70.4160   -9.5830 O         1 <0>         0.0000
  29122 WAT       -33.9320  -70.4160   -9.3330 O         1 <0>         0.0000
  29123 WAT       -33.9320  -70.4160   -9.0830 O         1 <0>         0.0000
  29124 WAT       -33.9320  -70.4160   -8.8330 O         1 <0>         0.0000
  29125 WAT       -33.9320  -70.4160   -8.5830 O         1 <0>         0.0000
  29126 WAT       -33.9320  -70.4160   -8.3330 O         1 <0>         0.0000
  29127 WAT       -33.9320  -70.4160   -8.0830 O         1 <0>         0.0002
  29128 WAT       -33.9320  -70.4160   -7.8330 O         1 <0>         0.0009
  29129 WAT       -33.9320  -70.4160   -7.5830 O         1 <0>         0.0026
  29130 WAT       -33.9320  -70.4160   -7.3330 O         1 <0>         0.0053
  29131 WAT       -33.9320  -70.4160   -7.0830 O         1 <0>         0.0083
  29132 WAT       -33.9320  -70.4160   -6.8330 O         1 <0>         0.0109
  29133 WAT       -33.9320  -70.4160   -6.5830 O         1 <0>         0.0125
  29134 WAT       -33.9320  -70.4160   -6.3330 O         1 <0>         0.0110
  29135 WAT       -33.9320  -70.4160   -6.0830 O         1 <0>         0.0065
  29136 WAT       -33.9320  -70.4160   -5.8330 O         1 <0>         0.0022
  29137 WAT       -33.9320  -70.4160   -5.5830 O         1 <0>         0.0003
  29138 WAT       -33.9320  -70.4160   -5.3330 O         1 <0>         0.0000
  29139 WAT       -33.9320  -70.4160   -5.0830 O         1 <0>         0.0000
  29140 WAT       -33.9320  -70.4160   -4.8330 O         1 <0>         0.0000
  29141 WAT       -33.9320  -70.4160   -4.5830 O         1 <0>         0.0000
  29142 WAT       -33.9320  -70.4160   -4.3330 O         1 <0>         0.0000
  29143 WAT       -33.9320  -70.4160   -4.0830 O         1 <0>         0.0000
  29144 WAT       -33.9320  -70.4160   -3.8330 O         1 <0>         0.0000
  29145 WAT       -33.9320  -70.4160   -3.5830 O         1 <0>         0.0000
  29146 WAT       -33.9320  -70.4160   -3.3330 O         1 <0>         0.0000
  29147 WAT       -33.9320  -70.4160   -3.0830 O         1 <0>         0.0000
  29148 WAT       -33.9320  -70.4160   -2.8330 O         1 <0>         0.0000
  29149 WAT       -33.9320  -70.4160   -2.5830 O         1 <0>         0.0000
  29150 WAT       -33.9320  -70.4160   -2.3330 O         1 <0>         0.0000
  29151 WAT       -33.9320  -70.4160   -2.0830 O         1 <0>         0.0000
  29152 WAT       -33.9320  -70.4160   -1.8330 O         1 <0>         0.0000
  29153 WAT       -33.9320  -70.4160   -1.5830 O         1 <0>         0.0000
  29154 WAT       -33.9320  -70.4160   -1.3330 O         1 <0>         0.0000
  29155 WAT       -33.9320  -70.4160   -1.0830 O         1 <0>         0.0000
  29156 WAT       -33.9320  -70.4160   -0.8330 O         1 <0>         0.0000
  29157 WAT       -33.9320  -70.4160   -0.5830 O         1 <0>         0.0000
  29158 WAT       -33.9320  -70.4160   -0.3330 O         1 <0>         0.0000
  29159 WAT       -33.9320  -70.4160   -0.0830 O         1 <0>         0.0000
  29160 WAT       -33.9320  -70.1660   -9.8330 O         1 <0>         0.0000
  29161 WAT       -33.9320  -70.1660   -9.5830 O         1 <0>         0.0000
  29162 WAT       -33.9320  -70.1660   -9.3330 O         1 <0>         0.0000
  29163 WAT       -33.9320  -70.1660   -9.0830 O         1 <0>         0.0000
  29164 WAT       -33.9320  -70.1660   -8.8330 O         1 <0>         0.0000
  29165 WAT       -33.9320  -70.1660   -8.5830 O         1 <0>         0.0000
  29166 WAT       -33.9320  -70.1660   -8.3330 O         1 <0>         0.0000
  29167 WAT       -33.9320  -70.1660   -8.0830 O         1 <0>         0.0001
  29168 WAT       -33.9320  -70.1660   -7.8330 O         1 <0>         0.0004
  29169 WAT       -33.9320  -70.1660   -7.5830 O         1 <0>         0.0015
  29170 WAT       -33.9320  -70.1660   -7.3330 O         1 <0>         0.0035
  29171 WAT       -33.9320  -70.1660   -7.0830 O         1 <0>         0.0060
  29172 WAT       -33.9320  -70.1660   -6.8330 O         1 <0>         0.0090
  29173 WAT       -33.9320  -70.1660   -6.5830 O         1 <0>         0.0112
  29174 WAT       -33.9320  -70.1660   -6.3330 O         1 <0>         0.0102
  29175 WAT       -33.9320  -70.1660   -6.0830 O         1 <0>         0.0060
  29176 WAT       -33.9320  -70.1660   -5.8330 O         1 <0>         0.0020
  29177 WAT       -33.9320  -70.1660   -5.5830 O         1 <0>         0.0003
  29178 WAT       -33.9320  -70.1660   -5.3330 O         1 <0>         0.0000
  29179 WAT       -33.9320  -70.1660   -5.0830 O         1 <0>         0.0000
  29180 WAT       -33.9320  -70.1660   -4.8330 O         1 <0>         0.0000
  29181 WAT       -33.9320  -70.1660   -4.5830 O         1 <0>         0.0000
  29182 WAT       -33.9320  -70.1660   -4.3330 O         1 <0>         0.0000
  29183 WAT       -33.9320  -70.1660   -4.0830 O         1 <0>         0.0000
  29184 WAT       -33.9320  -70.1660   -3.8330 O         1 <0>         0.0000
  29185 WAT       -33.9320  -70.1660   -3.5830 O         1 <0>         0.0000
  29186 WAT       -33.9320  -70.1660   -3.3330 O         1 <0>         0.0000
  29187 WAT       -33.9320  -70.1660   -3.0830 O         1 <0>         0.0000
  29188 WAT       -33.9320  -70.1660   -2.8330 O         1 <0>         0.0000
  29189 WAT       -33.9320  -70.1660   -2.5830 O         1 <0>         0.0000
  29190 WAT       -33.9320  -70.1660   -2.3330 O         1 <0>         0.0000
  29191 WAT       -33.9320  -70.1660   -2.0830 O         1 <0>         0.0000
  29192 WAT       -33.9320  -70.1660   -1.8330 O         1 <0>         0.0000
  29193 WAT       -33.9320  -70.1660   -1.5830 O         1 <0>         0.0000
  29194 WAT       -33.9320  -70.1660   -1.3330 O         1 <0>         0.0000
  29195 WAT       -33.9320  -70.1660   -1.0830 O         1 <0>         0.0000
  29196 WAT       -33.9320  -70.1660   -0.8330 O         1 <0>         0.0000
  29197 WAT       -33.9320  -70.1660   -0.5830 O         1 <0>         0.0000
  29198 WAT       -33.9320  -70.1660   -0.3330 O         1 <0>         0.0000
  29199 WAT       -33.9320  -70.1660   -0.0830 O         1 <0>         0.0000
  29200 WAT       -33.9320  -69.9160   -9.8330 O         1 <0>         0.0000
  29201 WAT       -33.9320  -69.9160   -9.5830 O         1 <0>         0.0000
  29202 WAT       -33.9320  -69.9160   -9.3330 O         1 <0>         0.0000
  29203 WAT       -33.9320  -69.9160   -9.0830 O         1 <0>         0.0000
  29204 WAT       -33.9320  -69.9160   -8.8330 O         1 <0>         0.0000
  29205 WAT       -33.9320  -69.9160   -8.5830 O         1 <0>         0.0000
  29206 WAT       -33.9320  -69.9160   -8.3330 O         1 <0>         0.0000
  29207 WAT       -33.9320  -69.9160   -8.0830 O         1 <0>         0.0000
  29208 WAT       -33.9320  -69.9160   -7.8330 O         1 <0>         0.0002
  29209 WAT       -33.9320  -69.9160   -7.5830 O         1 <0>         0.0007
  29210 WAT       -33.9320  -69.9160   -7.3330 O         1 <0>         0.0016
  29211 WAT       -33.9320  -69.9160   -7.0830 O         1 <0>         0.0030
  29212 WAT       -33.9320  -69.9160   -6.8330 O         1 <0>         0.0049
  29213 WAT       -33.9320  -69.9160   -6.5830 O         1 <0>         0.0065
  29214 WAT       -33.9320  -69.9160   -6.3330 O         1 <0>         0.0060
  29215 WAT       -33.9320  -69.9160   -6.0830 O         1 <0>         0.0036
  29216 WAT       -33.9320  -69.9160   -5.8330 O         1 <0>         0.0012
  29217 WAT       -33.9320  -69.9160   -5.5830 O         1 <0>         0.0001
  29218 WAT       -33.9320  -69.9160   -5.3330 O         1 <0>         0.0000
  29219 WAT       -33.9320  -69.9160   -5.0830 O         1 <0>         0.0000
  29220 WAT       -33.9320  -69.9160   -4.8330 O         1 <0>         0.0000
  29221 WAT       -33.9320  -69.9160   -4.5830 O         1 <0>         0.0000
  29222 WAT       -33.9320  -69.9160   -4.3330 O         1 <0>         0.0000
  29223 WAT       -33.9320  -69.9160   -4.0830 O         1 <0>         0.0000
  29224 WAT       -33.9320  -69.9160   -3.8330 O         1 <0>         0.0000
  29225 WAT       -33.9320  -69.9160   -3.5830 O         1 <0>         0.0000
  29226 WAT       -33.9320  -69.9160   -3.3330 O         1 <0>         0.0000
  29227 WAT       -33.9320  -69.9160   -3.0830 O         1 <0>         0.0000
  29228 WAT       -33.9320  -69.9160   -2.8330 O         1 <0>         0.0000
  29229 WAT       -33.9320  -69.9160   -2.5830 O         1 <0>         0.0000
  29230 WAT       -33.9320  -69.9160   -2.3330 O         1 <0>         0.0000
  29231 WAT       -33.9320  -69.9160   -2.0830 O         1 <0>         0.0000
  29232 WAT       -33.9320  -69.9160   -1.8330 O         1 <0>         0.0000
  29233 WAT       -33.9320  -69.9160   -1.5830 O         1 <0>         0.0000
  29234 WAT       -33.9320  -69.9160   -1.3330 O         1 <0>         0.0000
  29235 WAT       -33.9320  -69.9160   -1.0830 O         1 <0>         0.0000
  29236 WAT       -33.9320  -69.9160   -0.8330 O         1 <0>         0.0000
  29237 WAT       -33.9320  -69.9160   -0.5830 O         1 <0>         0.0000
  29238 WAT       -33.9320  -69.9160   -0.3330 O         1 <0>         0.0000
  29239 WAT       -33.9320  -69.9160   -0.0830 O         1 <0>         0.0000
  29240 WAT       -33.9320  -69.6660   -9.8330 O         1 <0>         0.0000
  29241 WAT       -33.9320  -69.6660   -9.5830 O         1 <0>         0.0000
  29242 WAT       -33.9320  -69.6660   -9.3330 O         1 <0>         0.0000
  29243 WAT       -33.9320  -69.6660   -9.0830 O         1 <0>         0.0000
  29244 WAT       -33.9320  -69.6660   -8.8330 O         1 <0>         0.0000
  29245 WAT       -33.9320  -69.6660   -8.5830 O         1 <0>         0.0000
  29246 WAT       -33.9320  -69.6660   -8.3330 O         1 <0>         0.0000
  29247 WAT       -33.9320  -69.6660   -8.0830 O         1 <0>         0.0000
  29248 WAT       -33.9320  -69.6660   -7.8330 O         1 <0>         0.0000
  29249 WAT       -33.9320  -69.6660   -7.5830 O         1 <0>         0.0002
  29250 WAT       -33.9320  -69.6660   -7.3330 O         1 <0>         0.0005
  29251 WAT       -33.9320  -69.6660   -7.0830 O         1 <0>         0.0009
  29252 WAT       -33.9320  -69.6660   -6.8330 O         1 <0>         0.0016
  29253 WAT       -33.9320  -69.6660   -6.5830 O         1 <0>         0.0023
  29254 WAT       -33.9320  -69.6660   -6.3330 O         1 <0>         0.0022
  29255 WAT       -33.9320  -69.6660   -6.0830 O         1 <0>         0.0012
  29256 WAT       -33.9320  -69.6660   -5.8330 O         1 <0>         0.0003
  29257 WAT       -33.9320  -69.6660   -5.5830 O         1 <0>         0.0000
  29258 WAT       -33.9320  -69.6660   -5.3330 O         1 <0>         0.0000
  29259 WAT       -33.9320  -69.6660   -5.0830 O         1 <0>         0.0000
  29260 WAT       -33.9320  -69.6660   -4.8330 O         1 <0>         0.0000
  29261 WAT       -33.9320  -69.6660   -4.5830 O         1 <0>         0.0000
  29262 WAT       -33.9320  -69.6660   -4.3330 O         1 <0>         0.0000
  29263 WAT       -33.9320  -69.6660   -4.0830 O         1 <0>         0.0000
  29264 WAT       -33.9320  -69.6660   -3.8330 O         1 <0>         0.0000
  29265 WAT       -33.9320  -69.6660   -3.5830 O         1 <0>         0.0000
  29266 WAT       -33.9320  -69.6660   -3.3330 O         1 <0>         0.0000
  29267 WAT       -33.9320  -69.6660   -3.0830 O         1 <0>         0.0000
  29268 WAT       -33.9320  -69.6660   -2.8330 O         1 <0>         0.0000
  29269 WAT       -33.9320  -69.6660   -2.5830 O         1 <0>         0.0000
  29270 WAT       -33.9320  -69.6660   -2.3330 O         1 <0>         0.0000
  29271 WAT       -33.9320  -69.6660   -2.0830 O         1 <0>         0.0000
  29272 WAT       -33.9320  -69.6660   -1.8330 O         1 <0>         0.0000
  29273 WAT       -33.9320  -69.6660   -1.5830 O         1 <0>         0.0000
  29274 WAT       -33.9320  -69.6660   -1.3330 O         1 <0>         0.0000
  29275 WAT       -33.9320  -69.6660   -1.0830 O         1 <0>         0.0000
  29276 WAT       -33.9320  -69.6660   -0.8330 O         1 <0>         0.0000
  29277 WAT       -33.9320  -69.6660   -0.5830 O         1 <0>         0.0000
  29278 WAT       -33.9320  -69.6660   -0.3330 O         1 <0>         0.0000
  29279 WAT       -33.9320  -69.6660   -0.0830 O         1 <0>         0.0000
  29280 WAT       -33.9320  -69.4160   -9.8330 O         1 <0>         0.0000
  29281 WAT       -33.9320  -69.4160   -9.5830 O         1 <0>         0.0000
  29282 WAT       -33.9320  -69.4160   -9.3330 O         1 <0>         0.0000
  29283 WAT       -33.9320  -69.4160   -9.0830 O         1 <0>         0.0000
  29284 WAT       -33.9320  -69.4160   -8.8330 O         1 <0>         0.0000
  29285 WAT       -33.9320  -69.4160   -8.5830 O         1 <0>         0.0000
  29286 WAT       -33.9320  -69.4160   -8.3330 O         1 <0>         0.0000
  29287 WAT       -33.9320  -69.4160   -8.0830 O         1 <0>         0.0000
  29288 WAT       -33.9320  -69.4160   -7.8330 O         1 <0>         0.0000
  29289 WAT       -33.9320  -69.4160   -7.5830 O         1 <0>         0.0000
  29290 WAT       -33.9320  -69.4160   -7.3330 O         1 <0>         0.0001
  29291 WAT       -33.9320  -69.4160   -7.0830 O         1 <0>         0.0001
  29292 WAT       -33.9320  -69.4160   -6.8330 O         1 <0>         0.0003
  29293 WAT       -33.9320  -69.4160   -6.5830 O         1 <0>         0.0004
  29294 WAT       -33.9320  -69.4160   -6.3330 O         1 <0>         0.0004
  29295 WAT       -33.9320  -69.4160   -6.0830 O         1 <0>         0.0002
  29296 WAT       -33.9320  -69.4160   -5.8330 O         1 <0>         0.0000
  29297 WAT       -33.9320  -69.4160   -5.5830 O         1 <0>         0.0000
  29298 WAT       -33.9320  -69.4160   -5.3330 O         1 <0>         0.0000
  29299 WAT       -33.9320  -69.4160   -5.0830 O         1 <0>         0.0000
  29300 WAT       -33.9320  -69.4160   -4.8330 O         1 <0>         0.0000
  29301 WAT       -33.9320  -69.4160   -4.5830 O         1 <0>         0.0000
  29302 WAT       -33.9320  -69.4160   -4.3330 O         1 <0>         0.0000
  29303 WAT       -33.9320  -69.4160   -4.0830 O         1 <0>         0.0000
  29304 WAT       -33.9320  -69.4160   -3.8330 O         1 <0>         0.0000
  29305 WAT       -33.9320  -69.4160   -3.5830 O         1 <0>         0.0000
  29306 WAT       -33.9320  -69.4160   -3.3330 O         1 <0>         0.0000
  29307 WAT       -33.9320  -69.4160   -3.0830 O         1 <0>         0.0000
  29308 WAT       -33.9320  -69.4160   -2.8330 O         1 <0>         0.0000
  29309 WAT       -33.9320  -69.4160   -2.5830 O         1 <0>         0.0000
  29310 WAT       -33.9320  -69.4160   -2.3330 O         1 <0>         0.0000
  29311 WAT       -33.9320  -69.4160   -2.0830 O         1 <0>         0.0000
  29312 WAT       -33.9320  -69.4160   -1.8330 O         1 <0>         0.0000
  29313 WAT       -33.9320  -69.4160   -1.5830 O         1 <0>         0.0000
  29314 WAT       -33.9320  -69.4160   -1.3330 O         1 <0>         0.0000
  29315 WAT       -33.9320  -69.4160   -1.0830 O         1 <0>         0.0000
  29316 WAT       -33.9320  -69.4160   -0.8330 O         1 <0>         0.0000
  29317 WAT       -33.9320  -69.4160   -0.5830 O         1 <0>         0.0000
  29318 WAT       -33.9320  -69.4160   -0.3330 O         1 <0>         0.0000
  29319 WAT       -33.9320  -69.4160   -0.0830 O         1 <0>         0.0000
  29320 WAT       -33.9320  -69.1660   -9.8330 O         1 <0>         0.0000
  29321 WAT       -33.9320  -69.1660   -9.5830 O         1 <0>         0.0000
  29322 WAT       -33.9320  -69.1660   -9.3330 O         1 <0>         0.0000
  29323 WAT       -33.9320  -69.1660   -9.0830 O         1 <0>         0.0000
  29324 WAT       -33.9320  -69.1660   -8.8330 O         1 <0>         0.0000
  29325 WAT       -33.9320  -69.1660   -8.5830 O         1 <0>         0.0000
  29326 WAT       -33.9320  -69.1660   -8.3330 O         1 <0>         0.0000
  29327 WAT       -33.9320  -69.1660   -8.0830 O         1 <0>         0.0000
  29328 WAT       -33.9320  -69.1660   -7.8330 O         1 <0>         0.0000
  29329 WAT       -33.9320  -69.1660   -7.5830 O         1 <0>         0.0000
  29330 WAT       -33.9320  -69.1660   -7.3330 O         1 <0>         0.0000
  29331 WAT       -33.9320  -69.1660   -7.0830 O         1 <0>         0.0000
  29332 WAT       -33.9320  -69.1660   -6.8330 O         1 <0>         0.0000
  29333 WAT       -33.9320  -69.1660   -6.5830 O         1 <0>         0.0000
  29334 WAT       -33.9320  -69.1660   -6.3330 O         1 <0>         0.0000
  29335 WAT       -33.9320  -69.1660   -6.0830 O         1 <0>         0.0000
  29336 WAT       -33.9320  -69.1660   -5.8330 O         1 <0>         0.0000
  29337 WAT       -33.9320  -69.1660   -5.5830 O         1 <0>         0.0000
  29338 WAT       -33.9320  -69.1660   -5.3330 O         1 <0>         0.0000
  29339 WAT       -33.9320  -69.1660   -5.0830 O         1 <0>         0.0000
  29340 WAT       -33.9320  -69.1660   -4.8330 O         1 <0>         0.0000
  29341 WAT       -33.9320  -69.1660   -4.5830 O         1 <0>         0.0000
  29342 WAT       -33.9320  -69.1660   -4.3330 O         1 <0>         0.0000
  29343 WAT       -33.9320  -69.1660   -4.0830 O         1 <0>         0.0000
  29344 WAT       -33.9320  -69.1660   -3.8330 O         1 <0>         0.0000
  29345 WAT       -33.9320  -69.1660   -3.5830 O         1 <0>         0.0000
  29346 WAT       -33.9320  -69.1660   -3.3330 O         1 <0>         0.0000
  29347 WAT       -33.9320  -69.1660   -3.0830 O         1 <0>         0.0000
  29348 WAT       -33.9320  -69.1660   -2.8330 O         1 <0>         0.0000
  29349 WAT       -33.9320  -69.1660   -2.5830 O         1 <0>         0.0000
  29350 WAT       -33.9320  -69.1660   -2.3330 O         1 <0>         0.0000
  29351 WAT       -33.9320  -69.1660   -2.0830 O         1 <0>         0.0000
  29352 WAT       -33.9320  -69.1660   -1.8330 O         1 <0>         0.0000
  29353 WAT       -33.9320  -69.1660   -1.5830 O         1 <0>         0.0000
  29354 WAT       -33.9320  -69.1660   -1.3330 O         1 <0>         0.0000
  29355 WAT       -33.9320  -69.1660   -1.0830 O         1 <0>         0.0000
  29356 WAT       -33.9320  -69.1660   -0.8330 O         1 <0>         0.0000
  29357 WAT       -33.9320  -69.1660   -0.5830 O         1 <0>         0.0000
  29358 WAT       -33.9320  -69.1660   -0.3330 O         1 <0>         0.0000
  29359 WAT       -33.9320  -69.1660   -0.0830 O         1 <0>         0.0000
  29360 WAT       -33.9320  -68.9160   -9.8330 O         1 <0>         0.0000
  29361 WAT       -33.9320  -68.9160   -9.5830 O         1 <0>         0.0000
  29362 WAT       -33.9320  -68.9160   -9.3330 O         1 <0>         0.0000
  29363 WAT       -33.9320  -68.9160   -9.0830 O         1 <0>         0.0000
  29364 WAT       -33.9320  -68.9160   -8.8330 O         1 <0>         0.0000
  29365 WAT       -33.9320  -68.9160   -8.5830 O         1 <0>         0.0000
  29366 WAT       -33.9320  -68.9160   -8.3330 O         1 <0>         0.0000
  29367 WAT       -33.9320  -68.9160   -8.0830 O         1 <0>         0.0000
  29368 WAT       -33.9320  -68.9160   -7.8330 O         1 <0>         0.0000
  29369 WAT       -33.9320  -68.9160   -7.5830 O         1 <0>         0.0000
  29370 WAT       -33.9320  -68.9160   -7.3330 O         1 <0>         0.0000
  29371 WAT       -33.9320  -68.9160   -7.0830 O         1 <0>         0.0000
  29372 WAT       -33.9320  -68.9160   -6.8330 O         1 <0>         0.0000
  29373 WAT       -33.9320  -68.9160   -6.5830 O         1 <0>         0.0000
  29374 WAT       -33.9320  -68.9160   -6.3330 O         1 <0>         0.0000
  29375 WAT       -33.9320  -68.9160   -6.0830 O         1 <0>         0.0000
  29376 WAT       -33.9320  -68.9160   -5.8330 O         1 <0>         0.0000
  29377 WAT       -33.9320  -68.9160   -5.5830 O         1 <0>         0.0000
  29378 WAT       -33.9320  -68.9160   -5.3330 O         1 <0>         0.0000
  29379 WAT       -33.9320  -68.9160   -5.0830 O         1 <0>         0.0000
  29380 WAT       -33.9320  -68.9160   -4.8330 O         1 <0>         0.0000
  29381 WAT       -33.9320  -68.9160   -4.5830 O         1 <0>         0.0000
  29382 WAT       -33.9320  -68.9160   -4.3330 O         1 <0>         0.0000
  29383 WAT       -33.9320  -68.9160   -4.0830 O         1 <0>         0.0000
  29384 WAT       -33.9320  -68.9160   -3.8330 O         1 <0>         0.0000
  29385 WAT       -33.9320  -68.9160   -3.5830 O         1 <0>         0.0000
  29386 WAT       -33.9320  -68.9160   -3.3330 O         1 <0>         0.0000
  29387 WAT       -33.9320  -68.9160   -3.0830 O         1 <0>         0.0000
  29388 WAT       -33.9320  -68.9160   -2.8330 O         1 <0>         0.0000
  29389 WAT       -33.9320  -68.9160   -2.5830 O         1 <0>         0.0000
  29390 WAT       -33.9320  -68.9160   -2.3330 O         1 <0>         0.0000
  29391 WAT       -33.9320  -68.9160   -2.0830 O         1 <0>         0.0000
  29392 WAT       -33.9320  -68.9160   -1.8330 O         1 <0>         0.0000
  29393 WAT       -33.9320  -68.9160   -1.5830 O         1 <0>         0.0000
  29394 WAT       -33.9320  -68.9160   -1.3330 O         1 <0>         0.0000
  29395 WAT       -33.9320  -68.9160   -1.0830 O         1 <0>         0.0000
  29396 WAT       -33.9320  -68.9160   -0.8330 O         1 <0>         0.0000
  29397 WAT       -33.9320  -68.9160   -0.5830 O         1 <0>         0.0000
  29398 WAT       -33.9320  -68.9160   -0.3330 O         1 <0>         0.0000
  29399 WAT       -33.9320  -68.9160   -0.0830 O         1 <0>         0.0000
  29400 WAT       -33.6820  -77.4160   -9.8330 O         1 <0>         0.0000
  29401 WAT       -33.6820  -77.4160   -9.5830 O         1 <0>         0.0000
  29402 WAT       -33.6820  -77.4160   -9.3330 O         1 <0>         0.0000
  29403 WAT       -33.6820  -77.4160   -9.0830 O         1 <0>         0.0000
  29404 WAT       -33.6820  -77.4160   -8.8330 O         1 <0>         0.0000
  29405 WAT       -33.6820  -77.4160   -8.5830 O         1 <0>         0.0000
  29406 WAT       -33.6820  -77.4160   -8.3330 O         1 <0>         0.0000
  29407 WAT       -33.6820  -77.4160   -8.0830 O         1 <0>         0.0000
  29408 WAT       -33.6820  -77.4160   -7.8330 O         1 <0>         0.0000
  29409 WAT       -33.6820  -77.4160   -7.5830 O         1 <0>         0.0000
  29410 WAT       -33.6820  -77.4160   -7.3330 O         1 <0>         0.0000
  29411 WAT       -33.6820  -77.4160   -7.0830 O         1 <0>         0.0000
  29412 WAT       -33.6820  -77.4160   -6.8330 O         1 <0>         0.0000
  29413 WAT       -33.6820  -77.4160   -6.5830 O         1 <0>         0.0000
  29414 WAT       -33.6820  -77.4160   -6.3330 O         1 <0>         0.0000
  29415 WAT       -33.6820  -77.4160   -6.0830 O         1 <0>         0.0000
  29416 WAT       -33.6820  -77.4160   -5.8330 O         1 <0>         0.0000
  29417 WAT       -33.6820  -77.4160   -5.5830 O         1 <0>         0.0000
  29418 WAT       -33.6820  -77.4160   -5.3330 O         1 <0>         0.0000
  29419 WAT       -33.6820  -77.4160   -5.0830 O         1 <0>         0.0000
  29420 WAT       -33.6820  -77.4160   -4.8330 O         1 <0>         0.0000
  29421 WAT       -33.6820  -77.4160   -4.5830 O         1 <0>         0.0000
  29422 WAT       -33.6820  -77.4160   -4.3330 O         1 <0>         0.0000
  29423 WAT       -33.6820  -77.4160   -4.0830 O         1 <0>         0.0000
  29424 WAT       -33.6820  -77.4160   -3.8330 O         1 <0>         0.0000
  29425 WAT       -33.6820  -77.4160   -3.5830 O         1 <0>         0.0000
  29426 WAT       -33.6820  -77.4160   -3.3330 O         1 <0>         0.0000
  29427 WAT       -33.6820  -77.4160   -3.0830 O         1 <0>         0.0000
  29428 WAT       -33.6820  -77.4160   -2.8330 O         1 <0>         0.0000
  29429 WAT       -33.6820  -77.4160   -2.5830 O         1 <0>         0.0000
  29430 WAT       -33.6820  -77.4160   -2.3330 O         1 <0>         0.0000
  29431 WAT       -33.6820  -77.4160   -2.0830 O         1 <0>         0.0000
  29432 WAT       -33.6820  -77.4160   -1.8330 O         1 <0>         0.0000
  29433 WAT       -33.6820  -77.4160   -1.5830 O         1 <0>         0.0000
  29434 WAT       -33.6820  -77.4160   -1.3330 O         1 <0>         0.0000
  29435 WAT       -33.6820  -77.4160   -1.0830 O         1 <0>         0.0000
  29436 WAT       -33.6820  -77.4160   -0.8330 O         1 <0>         0.0000
  29437 WAT       -33.6820  -77.4160   -0.5830 O         1 <0>         0.0000
  29438 WAT       -33.6820  -77.4160   -0.3330 O         1 <0>         0.0000
  29439 WAT       -33.6820  -77.4160   -0.0830 O         1 <0>         0.0000
  29440 WAT       -33.6820  -77.1660   -9.8330 O         1 <0>         0.0000
  29441 WAT       -33.6820  -77.1660   -9.5830 O         1 <0>         0.0000
  29442 WAT       -33.6820  -77.1660   -9.3330 O         1 <0>         0.0000
  29443 WAT       -33.6820  -77.1660   -9.0830 O         1 <0>         0.0000
  29444 WAT       -33.6820  -77.1660   -8.8330 O         1 <0>         0.0000
  29445 WAT       -33.6820  -77.1660   -8.5830 O         1 <0>         0.0000
  29446 WAT       -33.6820  -77.1660   -8.3330 O         1 <0>         0.0000
  29447 WAT       -33.6820  -77.1660   -8.0830 O         1 <0>         0.0000
  29448 WAT       -33.6820  -77.1660   -7.8330 O         1 <0>         0.0000
  29449 WAT       -33.6820  -77.1660   -7.5830 O         1 <0>         0.0000
  29450 WAT       -33.6820  -77.1660   -7.3330 O         1 <0>         0.0000
  29451 WAT       -33.6820  -77.1660   -7.0830 O         1 <0>         0.0000
  29452 WAT       -33.6820  -77.1660   -6.8330 O         1 <0>         0.0000
  29453 WAT       -33.6820  -77.1660   -6.5830 O         1 <0>         0.0000
  29454 WAT       -33.6820  -77.1660   -6.3330 O         1 <0>         0.0000
  29455 WAT       -33.6820  -77.1660   -6.0830 O         1 <0>         0.0000
  29456 WAT       -33.6820  -77.1660   -5.8330 O         1 <0>         0.0000
  29457 WAT       -33.6820  -77.1660   -5.5830 O         1 <0>         0.0000
  29458 WAT       -33.6820  -77.1660   -5.3330 O         1 <0>         0.0000
  29459 WAT       -33.6820  -77.1660   -5.0830 O         1 <0>         0.0000
  29460 WAT       -33.6820  -77.1660   -4.8330 O         1 <0>         0.0000
  29461 WAT       -33.6820  -77.1660   -4.5830 O         1 <0>         0.0000
  29462 WAT       -33.6820  -77.1660   -4.3330 O         1 <0>         0.0000
  29463 WAT       -33.6820  -77.1660   -4.0830 O         1 <0>         0.0000
  29464 WAT       -33.6820  -77.1660   -3.8330 O         1 <0>         0.0000
  29465 WAT       -33.6820  -77.1660   -3.5830 O         1 <0>         0.0000
  29466 WAT       -33.6820  -77.1660   -3.3330 O         1 <0>         0.0000
  29467 WAT       -33.6820  -77.1660   -3.0830 O         1 <0>         0.0000
  29468 WAT       -33.6820  -77.1660   -2.8330 O         1 <0>         0.0000
  29469 WAT       -33.6820  -77.1660   -2.5830 O         1 <0>         0.0000
  29470 WAT       -33.6820  -77.1660   -2.3330 O         1 <0>         0.0000
  29471 WAT       -33.6820  -77.1660   -2.0830 O         1 <0>         0.0000
  29472 WAT       -33.6820  -77.1660   -1.8330 O         1 <0>         0.0000
  29473 WAT       -33.6820  -77.1660   -1.5830 O         1 <0>         0.0000
  29474 WAT       -33.6820  -77.1660   -1.3330 O         1 <0>         0.0000
  29475 WAT       -33.6820  -77.1660   -1.0830 O         1 <0>         0.0000
  29476 WAT       -33.6820  -77.1660   -0.8330 O         1 <0>         0.0000
  29477 WAT       -33.6820  -77.1660   -0.5830 O         1 <0>         0.0000
  29478 WAT       -33.6820  -77.1660   -0.3330 O         1 <0>         0.0000
  29479 WAT       -33.6820  -77.1660   -0.0830 O         1 <0>         0.0000
  29480 WAT       -33.6820  -76.9160   -9.8330 O         1 <0>         0.0000
  29481 WAT       -33.6820  -76.9160   -9.5830 O         1 <0>         0.0000
  29482 WAT       -33.6820  -76.9160   -9.3330 O         1 <0>         0.0000
  29483 WAT       -33.6820  -76.9160   -9.0830 O         1 <0>         0.0000
  29484 WAT       -33.6820  -76.9160   -8.8330 O         1 <0>         0.0000
  29485 WAT       -33.6820  -76.9160   -8.5830 O         1 <0>         0.0000
  29486 WAT       -33.6820  -76.9160   -8.3330 O         1 <0>         0.0000
  29487 WAT       -33.6820  -76.9160   -8.0830 O         1 <0>         0.0000
  29488 WAT       -33.6820  -76.9160   -7.8330 O         1 <0>         0.0000
  29489 WAT       -33.6820  -76.9160   -7.5830 O         1 <0>         0.0000
  29490 WAT       -33.6820  -76.9160   -7.3330 O         1 <0>         0.0000
  29491 WAT       -33.6820  -76.9160   -7.0830 O         1 <0>         0.0000
  29492 WAT       -33.6820  -76.9160   -6.8330 O         1 <0>         0.0000
  29493 WAT       -33.6820  -76.9160   -6.5830 O         1 <0>         0.0000
  29494 WAT       -33.6820  -76.9160   -6.3330 O         1 <0>         0.0000
  29495 WAT       -33.6820  -76.9160   -6.0830 O         1 <0>         0.0000
  29496 WAT       -33.6820  -76.9160   -5.8330 O         1 <0>         0.0000
  29497 WAT       -33.6820  -76.9160   -5.5830 O         1 <0>         0.0000
  29498 WAT       -33.6820  -76.9160   -5.3330 O         1 <0>         0.0000
  29499 WAT       -33.6820  -76.9160   -5.0830 O         1 <0>         0.0000
  29500 WAT       -33.6820  -76.9160   -4.8330 O         1 <0>         0.0000
  29501 WAT       -33.6820  -76.9160   -4.5830 O         1 <0>         0.0000
  29502 WAT       -33.6820  -76.9160   -4.3330 O         1 <0>         0.0000
  29503 WAT       -33.6820  -76.9160   -4.0830 O         1 <0>         0.0000
  29504 WAT       -33.6820  -76.9160   -3.8330 O         1 <0>         0.0000
  29505 WAT       -33.6820  -76.9160   -3.5830 O         1 <0>         0.0000
  29506 WAT       -33.6820  -76.9160   -3.3330 O         1 <0>         0.0000
  29507 WAT       -33.6820  -76.9160   -3.0830 O         1 <0>         0.0000
  29508 WAT       -33.6820  -76.9160   -2.8330 O         1 <0>         0.0000
  29509 WAT       -33.6820  -76.9160   -2.5830 O         1 <0>         0.0000
  29510 WAT       -33.6820  -76.9160   -2.3330 O         1 <0>         0.0000
  29511 WAT       -33.6820  -76.9160   -2.0830 O         1 <0>         0.0000
  29512 WAT       -33.6820  -76.9160   -1.8330 O         1 <0>         0.0000
  29513 WAT       -33.6820  -76.9160   -1.5830 O         1 <0>         0.0000
  29514 WAT       -33.6820  -76.9160   -1.3330 O         1 <0>         0.0000
  29515 WAT       -33.6820  -76.9160   -1.0830 O         1 <0>         0.0000
  29516 WAT       -33.6820  -76.9160   -0.8330 O         1 <0>         0.0000
  29517 WAT       -33.6820  -76.9160   -0.5830 O         1 <0>         0.0000
  29518 WAT       -33.6820  -76.9160   -0.3330 O         1 <0>         0.0000
  29519 WAT       -33.6820  -76.9160   -0.0830 O         1 <0>         0.0000
  29520 WAT       -33.6820  -76.6660   -9.8330 O         1 <0>         0.0000
  29521 WAT       -33.6820  -76.6660   -9.5830 O         1 <0>         0.0000
  29522 WAT       -33.6820  -76.6660   -9.3330 O         1 <0>         0.0000
  29523 WAT       -33.6820  -76.6660   -9.0830 O         1 <0>         0.0000
  29524 WAT       -33.6820  -76.6660   -8.8330 O         1 <0>         0.0000
  29525 WAT       -33.6820  -76.6660   -8.5830 O         1 <0>         0.0000
  29526 WAT       -33.6820  -76.6660   -8.3330 O         1 <0>         0.0000
  29527 WAT       -33.6820  -76.6660   -8.0830 O         1 <0>         0.0000
  29528 WAT       -33.6820  -76.6660   -7.8330 O         1 <0>         0.0000
  29529 WAT       -33.6820  -76.6660   -7.5830 O         1 <0>         0.0000
  29530 WAT       -33.6820  -76.6660   -7.3330 O         1 <0>         0.0000
  29531 WAT       -33.6820  -76.6660   -7.0830 O         1 <0>         0.0000
  29532 WAT       -33.6820  -76.6660   -6.8330 O         1 <0>         0.0000
  29533 WAT       -33.6820  -76.6660   -6.5830 O         1 <0>         0.0000
  29534 WAT       -33.6820  -76.6660   -6.3330 O         1 <0>         0.0000
  29535 WAT       -33.6820  -76.6660   -6.0830 O         1 <0>         0.0000
  29536 WAT       -33.6820  -76.6660   -5.8330 O         1 <0>         0.0000
  29537 WAT       -33.6820  -76.6660   -5.5830 O         1 <0>         0.0000
  29538 WAT       -33.6820  -76.6660   -5.3330 O         1 <0>         0.0000
  29539 WAT       -33.6820  -76.6660   -5.0830 O         1 <0>         0.0000
  29540 WAT       -33.6820  -76.6660   -4.8330 O         1 <0>         0.0000
  29541 WAT       -33.6820  -76.6660   -4.5830 O         1 <0>         0.0000
  29542 WAT       -33.6820  -76.6660   -4.3330 O         1 <0>         0.0000
  29543 WAT       -33.6820  -76.6660   -4.0830 O         1 <0>         0.0000
  29544 WAT       -33.6820  -76.6660   -3.8330 O         1 <0>         0.0000
  29545 WAT       -33.6820  -76.6660   -3.5830 O         1 <0>         0.0000
  29546 WAT       -33.6820  -76.6660   -3.3330 O         1 <0>         0.0000
  29547 WAT       -33.6820  -76.6660   -3.0830 O         1 <0>         0.0000
  29548 WAT       -33.6820  -76.6660   -2.8330 O         1 <0>         0.0000
  29549 WAT       -33.6820  -76.6660   -2.5830 O         1 <0>         0.0000
  29550 WAT       -33.6820  -76.6660   -2.3330 O         1 <0>         0.0000
  29551 WAT       -33.6820  -76.6660   -2.0830 O         1 <0>         0.0000
  29552 WAT       -33.6820  -76.6660   -1.8330 O         1 <0>         0.0000
  29553 WAT       -33.6820  -76.6660   -1.5830 O         1 <0>         0.0000
  29554 WAT       -33.6820  -76.6660   -1.3330 O         1 <0>         0.0000
  29555 WAT       -33.6820  -76.6660   -1.0830 O         1 <0>         0.0000
  29556 WAT       -33.6820  -76.6660   -0.8330 O         1 <0>         0.0000
  29557 WAT       -33.6820  -76.6660   -0.5830 O         1 <0>         0.0000
  29558 WAT       -33.6820  -76.6660   -0.3330 O         1 <0>         0.0000
  29559 WAT       -33.6820  -76.6660   -0.0830 O         1 <0>         0.0000
  29560 WAT       -33.6820  -76.4160   -9.8330 O         1 <0>         0.0000
  29561 WAT       -33.6820  -76.4160   -9.5830 O         1 <0>         0.0000
  29562 WAT       -33.6820  -76.4160   -9.3330 O         1 <0>         0.0000
  29563 WAT       -33.6820  -76.4160   -9.0830 O         1 <0>         0.0000
  29564 WAT       -33.6820  -76.4160   -8.8330 O         1 <0>         0.0000
  29565 WAT       -33.6820  -76.4160   -8.5830 O         1 <0>         0.0000
  29566 WAT       -33.6820  -76.4160   -8.3330 O         1 <0>         0.0000
  29567 WAT       -33.6820  -76.4160   -8.0830 O         1 <0>         0.0000
  29568 WAT       -33.6820  -76.4160   -7.8330 O         1 <0>         0.0000
  29569 WAT       -33.6820  -76.4160   -7.5830 O         1 <0>         0.0000
  29570 WAT       -33.6820  -76.4160   -7.3330 O         1 <0>         0.0000
  29571 WAT       -33.6820  -76.4160   -7.0830 O         1 <0>         0.0000
  29572 WAT       -33.6820  -76.4160   -6.8330 O         1 <0>         0.0000
  29573 WAT       -33.6820  -76.4160   -6.5830 O         1 <0>         0.0000
  29574 WAT       -33.6820  -76.4160   -6.3330 O         1 <0>         0.0000
  29575 WAT       -33.6820  -76.4160   -6.0830 O         1 <0>         0.0000
  29576 WAT       -33.6820  -76.4160   -5.8330 O         1 <0>         0.0000
  29577 WAT       -33.6820  -76.4160   -5.5830 O         1 <0>         0.0000
  29578 WAT       -33.6820  -76.4160   -5.3330 O         1 <0>         0.0000
  29579 WAT       -33.6820  -76.4160   -5.0830 O         1 <0>         0.0000
  29580 WAT       -33.6820  -76.4160   -4.8330 O         1 <0>         0.0000
  29581 WAT       -33.6820  -76.4160   -4.5830 O         1 <0>         0.0000
  29582 WAT       -33.6820  -76.4160   -4.3330 O         1 <0>         0.0000
  29583 WAT       -33.6820  -76.4160   -4.0830 O         1 <0>         0.0000
  29584 WAT       -33.6820  -76.4160   -3.8330 O         1 <0>         0.0000
  29585 WAT       -33.6820  -76.4160   -3.5830 O         1 <0>         0.0000
  29586 WAT       -33.6820  -76.4160   -3.3330 O         1 <0>         0.0000
  29587 WAT       -33.6820  -76.4160   -3.0830 O         1 <0>         0.0000
  29588 WAT       -33.6820  -76.4160   -2.8330 O         1 <0>         0.0000
  29589 WAT       -33.6820  -76.4160   -2.5830 O         1 <0>         0.0000
  29590 WAT       -33.6820  -76.4160   -2.3330 O         1 <0>         0.0000
  29591 WAT       -33.6820  -76.4160   -2.0830 O         1 <0>         0.0000
  29592 WAT       -33.6820  -76.4160   -1.8330 O         1 <0>         0.0000
  29593 WAT       -33.6820  -76.4160   -1.5830 O         1 <0>         0.0000
  29594 WAT       -33.6820  -76.4160   -1.3330 O         1 <0>         0.0000
  29595 WAT       -33.6820  -76.4160   -1.0830 O         1 <0>         0.0000
  29596 WAT       -33.6820  -76.4160   -0.8330 O         1 <0>         0.0000
  29597 WAT       -33.6820  -76.4160   -0.5830 O         1 <0>         0.0000
  29598 WAT       -33.6820  -76.4160   -0.3330 O         1 <0>         0.0000
  29599 WAT       -33.6820  -76.4160   -0.0830 O         1 <0>         0.0000
  29600 WAT       -33.6820  -76.1660   -9.8330 O         1 <0>         0.0000
  29601 WAT       -33.6820  -76.1660   -9.5830 O         1 <0>         0.0000
  29602 WAT       -33.6820  -76.1660   -9.3330 O         1 <0>         0.0000
  29603 WAT       -33.6820  -76.1660   -9.0830 O         1 <0>         0.0000
  29604 WAT       -33.6820  -76.1660   -8.8330 O         1 <0>         0.0000
  29605 WAT       -33.6820  -76.1660   -8.5830 O         1 <0>         0.0000
  29606 WAT       -33.6820  -76.1660   -8.3330 O         1 <0>         0.0000
  29607 WAT       -33.6820  -76.1660   -8.0830 O         1 <0>         0.0000
  29608 WAT       -33.6820  -76.1660   -7.8330 O         1 <0>         0.0000
  29609 WAT       -33.6820  -76.1660   -7.5830 O         1 <0>         0.0000
  29610 WAT       -33.6820  -76.1660   -7.3330 O         1 <0>         0.0000
  29611 WAT       -33.6820  -76.1660   -7.0830 O         1 <0>         0.0000
  29612 WAT       -33.6820  -76.1660   -6.8330 O         1 <0>         0.0000
  29613 WAT       -33.6820  -76.1660   -6.5830 O         1 <0>         0.0000
  29614 WAT       -33.6820  -76.1660   -6.3330 O         1 <0>         0.0000
  29615 WAT       -33.6820  -76.1660   -6.0830 O         1 <0>         0.0000
  29616 WAT       -33.6820  -76.1660   -5.8330 O         1 <0>         0.0000
  29617 WAT       -33.6820  -76.1660   -5.5830 O         1 <0>         0.0000
  29618 WAT       -33.6820  -76.1660   -5.3330 O         1 <0>         0.0000
  29619 WAT       -33.6820  -76.1660   -5.0830 O         1 <0>         0.0000
  29620 WAT       -33.6820  -76.1660   -4.8330 O         1 <0>         0.0000
  29621 WAT       -33.6820  -76.1660   -4.5830 O         1 <0>         0.0000
  29622 WAT       -33.6820  -76.1660   -4.3330 O         1 <0>         0.0000
  29623 WAT       -33.6820  -76.1660   -4.0830 O         1 <0>         0.0000
  29624 WAT       -33.6820  -76.1660   -3.8330 O         1 <0>         0.0001
  29625 WAT       -33.6820  -76.1660   -3.5830 O         1 <0>         0.0002
  29626 WAT       -33.6820  -76.1660   -3.3330 O         1 <0>         0.0004
  29627 WAT       -33.6820  -76.1660   -3.0830 O         1 <0>         0.0004
  29628 WAT       -33.6820  -76.1660   -2.8330 O         1 <0>         0.0003
  29629 WAT       -33.6820  -76.1660   -2.5830 O         1 <0>         0.0001
  29630 WAT       -33.6820  -76.1660   -2.3330 O         1 <0>         0.0000
  29631 WAT       -33.6820  -76.1660   -2.0830 O         1 <0>         0.0000
  29632 WAT       -33.6820  -76.1660   -1.8330 O         1 <0>         0.0000
  29633 WAT       -33.6820  -76.1660   -1.5830 O         1 <0>         0.0000
  29634 WAT       -33.6820  -76.1660   -1.3330 O         1 <0>         0.0000
  29635 WAT       -33.6820  -76.1660   -1.0830 O         1 <0>         0.0000
  29636 WAT       -33.6820  -76.1660   -0.8330 O         1 <0>         0.0000
  29637 WAT       -33.6820  -76.1660   -0.5830 O         1 <0>         0.0000
  29638 WAT       -33.6820  -76.1660   -0.3330 O         1 <0>         0.0000
  29639 WAT       -33.6820  -76.1660   -0.0830 O         1 <0>         0.0000
  29640 WAT       -33.6820  -75.9160   -9.8330 O         1 <0>         0.0000
  29641 WAT       -33.6820  -75.9160   -9.5830 O         1 <0>         0.0000
  29642 WAT       -33.6820  -75.9160   -9.3330 O         1 <0>         0.0000
  29643 WAT       -33.6820  -75.9160   -9.0830 O         1 <0>         0.0000
  29644 WAT       -33.6820  -75.9160   -8.8330 O         1 <0>         0.0000
  29645 WAT       -33.6820  -75.9160   -8.5830 O         1 <0>         0.0000
  29646 WAT       -33.6820  -75.9160   -8.3330 O         1 <0>         0.0000
  29647 WAT       -33.6820  -75.9160   -8.0830 O         1 <0>         0.0000
  29648 WAT       -33.6820  -75.9160   -7.8330 O         1 <0>         0.0000
  29649 WAT       -33.6820  -75.9160   -7.5830 O         1 <0>         0.0000
  29650 WAT       -33.6820  -75.9160   -7.3330 O         1 <0>         0.0000
  29651 WAT       -33.6820  -75.9160   -7.0830 O         1 <0>         0.0000
  29652 WAT       -33.6820  -75.9160   -6.8330 O         1 <0>         0.0000
  29653 WAT       -33.6820  -75.9160   -6.5830 O         1 <0>         0.0000
  29654 WAT       -33.6820  -75.9160   -6.3330 O         1 <0>         0.0000
  29655 WAT       -33.6820  -75.9160   -6.0830 O         1 <0>         0.0000
  29656 WAT       -33.6820  -75.9160   -5.8330 O         1 <0>         0.0000
  29657 WAT       -33.6820  -75.9160   -5.5830 O         1 <0>         0.0000
  29658 WAT       -33.6820  -75.9160   -5.3330 O         1 <0>         0.0000
  29659 WAT       -33.6820  -75.9160   -5.0830 O         1 <0>         0.0000
  29660 WAT       -33.6820  -75.9160   -4.8330 O         1 <0>         0.0000
  29661 WAT       -33.6820  -75.9160   -4.5830 O         1 <0>         0.0000
  29662 WAT       -33.6820  -75.9160   -4.3330 O         1 <0>         0.0000
  29663 WAT       -33.6820  -75.9160   -4.0830 O         1 <0>         0.0003
  29664 WAT       -33.6820  -75.9160   -3.8330 O         1 <0>         0.0008
  29665 WAT       -33.6820  -75.9160   -3.5830 O         1 <0>         0.0017
  29666 WAT       -33.6820  -75.9160   -3.3330 O         1 <0>         0.0025
  29667 WAT       -33.6820  -75.9160   -3.0830 O         1 <0>         0.0026
  29668 WAT       -33.6820  -75.9160   -2.8330 O         1 <0>         0.0017
  29669 WAT       -33.6820  -75.9160   -2.5830 O         1 <0>         0.0007
  29670 WAT       -33.6820  -75.9160   -2.3330 O         1 <0>         0.0002
  29671 WAT       -33.6820  -75.9160   -2.0830 O         1 <0>         0.0000
  29672 WAT       -33.6820  -75.9160   -1.8330 O         1 <0>         0.0000
  29673 WAT       -33.6820  -75.9160   -1.5830 O         1 <0>         0.0000
  29674 WAT       -33.6820  -75.9160   -1.3330 O         1 <0>         0.0000
  29675 WAT       -33.6820  -75.9160   -1.0830 O         1 <0>         0.0000
  29676 WAT       -33.6820  -75.9160   -0.8330 O         1 <0>         0.0000
  29677 WAT       -33.6820  -75.9160   -0.5830 O         1 <0>         0.0000
  29678 WAT       -33.6820  -75.9160   -0.3330 O         1 <0>         0.0000
  29679 WAT       -33.6820  -75.9160   -0.0830 O         1 <0>         0.0000
  29680 WAT       -33.6820  -75.6660   -9.8330 O         1 <0>         0.0000
  29681 WAT       -33.6820  -75.6660   -9.5830 O         1 <0>         0.0000
  29682 WAT       -33.6820  -75.6660   -9.3330 O         1 <0>         0.0000
  29683 WAT       -33.6820  -75.6660   -9.0830 O         1 <0>         0.0000
  29684 WAT       -33.6820  -75.6660   -8.8330 O         1 <0>         0.0000
  29685 WAT       -33.6820  -75.6660   -8.5830 O         1 <0>         0.0000
  29686 WAT       -33.6820  -75.6660   -8.3330 O         1 <0>         0.0000
  29687 WAT       -33.6820  -75.6660   -8.0830 O         1 <0>         0.0000
  29688 WAT       -33.6820  -75.6660   -7.8330 O         1 <0>         0.0000
  29689 WAT       -33.6820  -75.6660   -7.5830 O         1 <0>         0.0000
  29690 WAT       -33.6820  -75.6660   -7.3330 O         1 <0>         0.0000
  29691 WAT       -33.6820  -75.6660   -7.0830 O         1 <0>         0.0000
  29692 WAT       -33.6820  -75.6660   -6.8330 O         1 <0>         0.0000
  29693 WAT       -33.6820  -75.6660   -6.5830 O         1 <0>         0.0000
  29694 WAT       -33.6820  -75.6660   -6.3330 O         1 <0>         0.0000
  29695 WAT       -33.6820  -75.6660   -6.0830 O         1 <0>         0.0000
  29696 WAT       -33.6820  -75.6660   -5.8330 O         1 <0>         0.0000
  29697 WAT       -33.6820  -75.6660   -5.5830 O         1 <0>         0.0000
  29698 WAT       -33.6820  -75.6660   -5.3330 O         1 <0>         0.0001
  29699 WAT       -33.6820  -75.6660   -5.0830 O         1 <0>         0.0001
  29700 WAT       -33.6820  -75.6660   -4.8330 O         1 <0>         0.0001
  29701 WAT       -33.6820  -75.6660   -4.5830 O         1 <0>         0.0002
  29702 WAT       -33.6820  -75.6660   -4.3330 O         1 <0>         0.0006
  29703 WAT       -33.6820  -75.6660   -4.0830 O         1 <0>         0.0016
  29704 WAT       -33.6820  -75.6660   -3.8330 O         1 <0>         0.0038
  29705 WAT       -33.6820  -75.6660   -3.5830 O         1 <0>         0.0067
  29706 WAT       -33.6820  -75.6660   -3.3330 O         1 <0>         0.0089
  29707 WAT       -33.6820  -75.6660   -3.0830 O         1 <0>         0.0086
  29708 WAT       -33.6820  -75.6660   -2.8330 O         1 <0>         0.0059
  29709 WAT       -33.6820  -75.6660   -2.5830 O         1 <0>         0.0027
  29710 WAT       -33.6820  -75.6660   -2.3330 O         1 <0>         0.0007
  29711 WAT       -33.6820  -75.6660   -2.0830 O         1 <0>         0.0001
  29712 WAT       -33.6820  -75.6660   -1.8330 O         1 <0>         0.0000
  29713 WAT       -33.6820  -75.6660   -1.5830 O         1 <0>         0.0000
  29714 WAT       -33.6820  -75.6660   -1.3330 O         1 <0>         0.0000
  29715 WAT       -33.6820  -75.6660   -1.0830 O         1 <0>         0.0000
  29716 WAT       -33.6820  -75.6660   -0.8330 O         1 <0>         0.0000
  29717 WAT       -33.6820  -75.6660   -0.5830 O         1 <0>         0.0000
  29718 WAT       -33.6820  -75.6660   -0.3330 O         1 <0>         0.0000
  29719 WAT       -33.6820  -75.6660   -0.0830 O         1 <0>         0.0000
  29720 WAT       -33.6820  -75.4160   -9.8330 O         1 <0>         0.0000
  29721 WAT       -33.6820  -75.4160   -9.5830 O         1 <0>         0.0000
  29722 WAT       -33.6820  -75.4160   -9.3330 O         1 <0>         0.0000
  29723 WAT       -33.6820  -75.4160   -9.0830 O         1 <0>         0.0000
  29724 WAT       -33.6820  -75.4160   -8.8330 O         1 <0>         0.0000
  29725 WAT       -33.6820  -75.4160   -8.5830 O         1 <0>         0.0000
  29726 WAT       -33.6820  -75.4160   -8.3330 O         1 <0>         0.0000
  29727 WAT       -33.6820  -75.4160   -8.0830 O         1 <0>         0.0000
  29728 WAT       -33.6820  -75.4160   -7.8330 O         1 <0>         0.0000
  29729 WAT       -33.6820  -75.4160   -7.5830 O         1 <0>         0.0000
  29730 WAT       -33.6820  -75.4160   -7.3330 O         1 <0>         0.0000
  29731 WAT       -33.6820  -75.4160   -7.0830 O         1 <0>         0.0000
  29732 WAT       -33.6820  -75.4160   -6.8330 O         1 <0>         0.0000
  29733 WAT       -33.6820  -75.4160   -6.5830 O         1 <0>         0.0000
  29734 WAT       -33.6820  -75.4160   -6.3330 O         1 <0>         0.0000
  29735 WAT       -33.6820  -75.4160   -6.0830 O         1 <0>         0.0000
  29736 WAT       -33.6820  -75.4160   -5.8330 O         1 <0>         0.0001
  29737 WAT       -33.6820  -75.4160   -5.5830 O         1 <0>         0.0001
  29738 WAT       -33.6820  -75.4160   -5.3330 O         1 <0>         0.0002
  29739 WAT       -33.6820  -75.4160   -5.0830 O         1 <0>         0.0003
  29740 WAT       -33.6820  -75.4160   -4.8330 O         1 <0>         0.0004
  29741 WAT       -33.6820  -75.4160   -4.5830 O         1 <0>         0.0009
  29742 WAT       -33.6820  -75.4160   -4.3330 O         1 <0>         0.0021
  29743 WAT       -33.6820  -75.4160   -4.0830 O         1 <0>         0.0049
  29744 WAT       -33.6820  -75.4160   -3.8330 O         1 <0>         0.0097
  29745 WAT       -33.6820  -75.4160   -3.5830 O         1 <0>         0.0157
  29746 WAT       -33.6820  -75.4160   -3.3330 O         1 <0>         0.0199
  29747 WAT       -33.6820  -75.4160   -3.0830 O         1 <0>         0.0191
  29748 WAT       -33.6820  -75.4160   -2.8330 O         1 <0>         0.0135
  29749 WAT       -33.6820  -75.4160   -2.5830 O         1 <0>         0.0067
  29750 WAT       -33.6820  -75.4160   -2.3330 O         1 <0>         0.0022
  29751 WAT       -33.6820  -75.4160   -2.0830 O         1 <0>         0.0004
  29752 WAT       -33.6820  -75.4160   -1.8330 O         1 <0>         0.0000
  29753 WAT       -33.6820  -75.4160   -1.5830 O         1 <0>         0.0000
  29754 WAT       -33.6820  -75.4160   -1.3330 O         1 <0>         0.0000
  29755 WAT       -33.6820  -75.4160   -1.0830 O         1 <0>         0.0000
  29756 WAT       -33.6820  -75.4160   -0.8330 O         1 <0>         0.0000
  29757 WAT       -33.6820  -75.4160   -0.5830 O         1 <0>         0.0000
  29758 WAT       -33.6820  -75.4160   -0.3330 O         1 <0>         0.0000
  29759 WAT       -33.6820  -75.4160   -0.0830 O         1 <0>         0.0000
  29760 WAT       -33.6820  -75.1660   -9.8330 O         1 <0>         0.0000
  29761 WAT       -33.6820  -75.1660   -9.5830 O         1 <0>         0.0000
  29762 WAT       -33.6820  -75.1660   -9.3330 O         1 <0>         0.0000
  29763 WAT       -33.6820  -75.1660   -9.0830 O         1 <0>         0.0000
  29764 WAT       -33.6820  -75.1660   -8.8330 O         1 <0>         0.0000
  29765 WAT       -33.6820  -75.1660   -8.5830 O         1 <0>         0.0000
  29766 WAT       -33.6820  -75.1660   -8.3330 O         1 <0>         0.0000
  29767 WAT       -33.6820  -75.1660   -8.0830 O         1 <0>         0.0000
  29768 WAT       -33.6820  -75.1660   -7.8330 O         1 <0>         0.0000
  29769 WAT       -33.6820  -75.1660   -7.5830 O         1 <0>         0.0000
  29770 WAT       -33.6820  -75.1660   -7.3330 O         1 <0>         0.0000
  29771 WAT       -33.6820  -75.1660   -7.0830 O         1 <0>         0.0000
  29772 WAT       -33.6820  -75.1660   -6.8330 O         1 <0>         0.0000
  29773 WAT       -33.6820  -75.1660   -6.5830 O         1 <0>         0.0000
  29774 WAT       -33.6820  -75.1660   -6.3330 O         1 <0>         0.0000
  29775 WAT       -33.6820  -75.1660   -6.0830 O         1 <0>         0.0001
  29776 WAT       -33.6820  -75.1660   -5.8330 O         1 <0>         0.0002
  29777 WAT       -33.6820  -75.1660   -5.5830 O         1 <0>         0.0004
  29778 WAT       -33.6820  -75.1660   -5.3330 O         1 <0>         0.0006
  29779 WAT       -33.6820  -75.1660   -5.0830 O         1 <0>         0.0009
  29780 WAT       -33.6820  -75.1660   -4.8330 O         1 <0>         0.0013
  29781 WAT       -33.6820  -75.1660   -4.5830 O         1 <0>         0.0024
  29782 WAT       -33.6820  -75.1660   -4.3330 O         1 <0>         0.0047
  29783 WAT       -33.6820  -75.1660   -4.0830 O         1 <0>         0.0092
  29784 WAT       -33.6820  -75.1660   -3.8330 O         1 <0>         0.0162
  29785 WAT       -33.6820  -75.1660   -3.5830 O         1 <0>         0.0245
  29786 WAT       -33.6820  -75.1660   -3.3330 O         1 <0>         0.0307
  29787 WAT       -33.6820  -75.1660   -3.0830 O         1 <0>         0.0306
  29788 WAT       -33.6820  -75.1660   -2.8330 O         1 <0>         0.0234
  29789 WAT       -33.6820  -75.1660   -2.5830 O         1 <0>         0.0134
  29790 WAT       -33.6820  -75.1660   -2.3330 O         1 <0>         0.0056
  29791 WAT       -33.6820  -75.1660   -2.0830 O         1 <0>         0.0016
  29792 WAT       -33.6820  -75.1660   -1.8330 O         1 <0>         0.0003
  29793 WAT       -33.6820  -75.1660   -1.5830 O         1 <0>         0.0000
  29794 WAT       -33.6820  -75.1660   -1.3330 O         1 <0>         0.0000
  29795 WAT       -33.6820  -75.1660   -1.0830 O         1 <0>         0.0000
  29796 WAT       -33.6820  -75.1660   -0.8330 O         1 <0>         0.0000
  29797 WAT       -33.6820  -75.1660   -0.5830 O         1 <0>         0.0000
  29798 WAT       -33.6820  -75.1660   -0.3330 O         1 <0>         0.0000
  29799 WAT       -33.6820  -75.1660   -0.0830 O         1 <0>         0.0000
  29800 WAT       -33.6820  -74.9160   -9.8330 O         1 <0>         0.0000
  29801 WAT       -33.6820  -74.9160   -9.5830 O         1 <0>         0.0000
  29802 WAT       -33.6820  -74.9160   -9.3330 O         1 <0>         0.0000
  29803 WAT       -33.6820  -74.9160   -9.0830 O         1 <0>         0.0000
  29804 WAT       -33.6820  -74.9160   -8.8330 O         1 <0>         0.0000
  29805 WAT       -33.6820  -74.9160   -8.5830 O         1 <0>         0.0000
  29806 WAT       -33.6820  -74.9160   -8.3330 O         1 <0>         0.0000
  29807 WAT       -33.6820  -74.9160   -8.0830 O         1 <0>         0.0000
  29808 WAT       -33.6820  -74.9160   -7.8330 O         1 <0>         0.0000
  29809 WAT       -33.6820  -74.9160   -7.5830 O         1 <0>         0.0000
  29810 WAT       -33.6820  -74.9160   -7.3330 O         1 <0>         0.0000
  29811 WAT       -33.6820  -74.9160   -7.0830 O         1 <0>         0.0000
  29812 WAT       -33.6820  -74.9160   -6.8330 O         1 <0>         0.0000
  29813 WAT       -33.6820  -74.9160   -6.5830 O         1 <0>         0.0001
  29814 WAT       -33.6820  -74.9160   -6.3330 O         1 <0>         0.0002
  29815 WAT       -33.6820  -74.9160   -6.0830 O         1 <0>         0.0004
  29816 WAT       -33.6820  -74.9160   -5.8330 O         1 <0>         0.0007
  29817 WAT       -33.6820  -74.9160   -5.5830 O         1 <0>         0.0012
  29818 WAT       -33.6820  -74.9160   -5.3330 O         1 <0>         0.0016
  29819 WAT       -33.6820  -74.9160   -5.0830 O         1 <0>         0.0020
  29820 WAT       -33.6820  -74.9160   -4.8330 O         1 <0>         0.0026
  29821 WAT       -33.6820  -74.9160   -4.5830 O         1 <0>         0.0041
  29822 WAT       -33.6820  -74.9160   -4.3330 O         1 <0>         0.0069
  29823 WAT       -33.6820  -74.9160   -4.0830 O         1 <0>         0.0116
  29824 WAT       -33.6820  -74.9160   -3.8330 O         1 <0>         0.0186
  29825 WAT       -33.6820  -74.9160   -3.5830 O         1 <0>         0.0273
  29826 WAT       -33.6820  -74.9160   -3.3330 O         1 <0>         0.0356
  29827 WAT       -33.6820  -74.9160   -3.0830 O         1 <0>         0.0395
  29828 WAT       -33.6820  -74.9160   -2.8330 O         1 <0>         0.0359
  29829 WAT       -33.6820  -74.9160   -2.5830 O         1 <0>         0.0259
  29830 WAT       -33.6820  -74.9160   -2.3330 O         1 <0>         0.0141
  29831 WAT       -33.6820  -74.9160   -2.0830 O         1 <0>         0.0055
  29832 WAT       -33.6820  -74.9160   -1.8330 O         1 <0>         0.0014
  29833 WAT       -33.6820  -74.9160   -1.5830 O         1 <0>         0.0002
  29834 WAT       -33.6820  -74.9160   -1.3330 O         1 <0>         0.0000
  29835 WAT       -33.6820  -74.9160   -1.0830 O         1 <0>         0.0000
  29836 WAT       -33.6820  -74.9160   -0.8330 O         1 <0>         0.0000
  29837 WAT       -33.6820  -74.9160   -0.5830 O         1 <0>         0.0000
  29838 WAT       -33.6820  -74.9160   -0.3330 O         1 <0>         0.0000
  29839 WAT       -33.6820  -74.9160   -0.0830 O         1 <0>         0.0000
  29840 WAT       -33.6820  -74.6660   -9.8330 O         1 <0>         0.0000
  29841 WAT       -33.6820  -74.6660   -9.5830 O         1 <0>         0.0000
  29842 WAT       -33.6820  -74.6660   -9.3330 O         1 <0>         0.0000
  29843 WAT       -33.6820  -74.6660   -9.0830 O         1 <0>         0.0000
  29844 WAT       -33.6820  -74.6660   -8.8330 O         1 <0>         0.0000
  29845 WAT       -33.6820  -74.6660   -8.5830 O         1 <0>         0.0000
  29846 WAT       -33.6820  -74.6660   -8.3330 O         1 <0>         0.0000
  29847 WAT       -33.6820  -74.6660   -8.0830 O         1 <0>         0.0000
  29848 WAT       -33.6820  -74.6660   -7.8330 O         1 <0>         0.0000
  29849 WAT       -33.6820  -74.6660   -7.5830 O         1 <0>         0.0000
  29850 WAT       -33.6820  -74.6660   -7.3330 O         1 <0>         0.0000
  29851 WAT       -33.6820  -74.6660   -7.0830 O         1 <0>         0.0000
  29852 WAT       -33.6820  -74.6660   -6.8330 O         1 <0>         0.0001
  29853 WAT       -33.6820  -74.6660   -6.5830 O         1 <0>         0.0003
  29854 WAT       -33.6820  -74.6660   -6.3330 O         1 <0>         0.0007
  29855 WAT       -33.6820  -74.6660   -6.0830 O         1 <0>         0.0013
  29856 WAT       -33.6820  -74.6660   -5.8330 O         1 <0>         0.0021
  29857 WAT       -33.6820  -74.6660   -5.5830 O         1 <0>         0.0029
  29858 WAT       -33.6820  -74.6660   -5.3330 O         1 <0>         0.0034
  29859 WAT       -33.6820  -74.6660   -5.0830 O         1 <0>         0.0036
  29860 WAT       -33.6820  -74.6660   -4.8330 O         1 <0>         0.0040
  29861 WAT       -33.6820  -74.6660   -4.5830 O         1 <0>         0.0051
  29862 WAT       -33.6820  -74.6660   -4.3330 O         1 <0>         0.0071
  29863 WAT       -33.6820  -74.6660   -4.0830 O         1 <0>         0.0103
  29864 WAT       -33.6820  -74.6660   -3.8330 O         1 <0>         0.0156
  29865 WAT       -33.6820  -74.6660   -3.5830 O         1 <0>         0.0240
  29866 WAT       -33.6820  -74.6660   -3.3330 O         1 <0>         0.0358
  29867 WAT       -33.6820  -74.6660   -3.0830 O         1 <0>         0.0486
  29868 WAT       -33.6820  -74.6660   -2.8330 O         1 <0>         0.0552
  29869 WAT       -33.6820  -74.6660   -2.5830 O         1 <0>         0.0490
  29870 WAT       -33.6820  -74.6660   -2.3330 O         1 <0>         0.0322
  29871 WAT       -33.6820  -74.6660   -2.0830 O         1 <0>         0.0151
  29872 WAT       -33.6820  -74.6660   -1.8330 O         1 <0>         0.0047
  29873 WAT       -33.6820  -74.6660   -1.5830 O         1 <0>         0.0008
  29874 WAT       -33.6820  -74.6660   -1.3330 O         1 <0>         0.0001
  29875 WAT       -33.6820  -74.6660   -1.0830 O         1 <0>         0.0000
  29876 WAT       -33.6820  -74.6660   -0.8330 O         1 <0>         0.0000
  29877 WAT       -33.6820  -74.6660   -0.5830 O         1 <0>         0.0000
  29878 WAT       -33.6820  -74.6660   -0.3330 O         1 <0>         0.0000
  29879 WAT       -33.6820  -74.6660   -0.0830 O         1 <0>         0.0000
  29880 WAT       -33.6820  -74.4160   -9.8330 O         1 <0>         0.0000
  29881 WAT       -33.6820  -74.4160   -9.5830 O         1 <0>         0.0000
  29882 WAT       -33.6820  -74.4160   -9.3330 O         1 <0>         0.0000
  29883 WAT       -33.6820  -74.4160   -9.0830 O         1 <0>         0.0000
  29884 WAT       -33.6820  -74.4160   -8.8330 O         1 <0>         0.0000
  29885 WAT       -33.6820  -74.4160   -8.5830 O         1 <0>         0.0000
  29886 WAT       -33.6820  -74.4160   -8.3330 O         1 <0>         0.0000
  29887 WAT       -33.6820  -74.4160   -8.0830 O         1 <0>         0.0000
  29888 WAT       -33.6820  -74.4160   -7.8330 O         1 <0>         0.0000
  29889 WAT       -33.6820  -74.4160   -7.5830 O         1 <0>         0.0000
  29890 WAT       -33.6820  -74.4160   -7.3330 O         1 <0>         0.0000
  29891 WAT       -33.6820  -74.4160   -7.0830 O         1 <0>         0.0001
  29892 WAT       -33.6820  -74.4160   -6.8330 O         1 <0>         0.0003
  29893 WAT       -33.6820  -74.4160   -6.5830 O         1 <0>         0.0009
  29894 WAT       -33.6820  -74.4160   -6.3330 O         1 <0>         0.0020
  29895 WAT       -33.6820  -74.4160   -6.0830 O         1 <0>         0.0035
  29896 WAT       -33.6820  -74.4160   -5.8330 O         1 <0>         0.0050
  29897 WAT       -33.6820  -74.4160   -5.5830 O         1 <0>         0.0062
  29898 WAT       -33.6820  -74.4160   -5.3330 O         1 <0>         0.0066
  29899 WAT       -33.6820  -74.4160   -5.0830 O         1 <0>         0.0061
  29900 WAT       -33.6820  -74.4160   -4.8330 O         1 <0>         0.0053
  29901 WAT       -33.6820  -74.4160   -4.5830 O         1 <0>         0.0050
  29902 WAT       -33.6820  -74.4160   -4.3330 O         1 <0>         0.0055
  29903 WAT       -33.6820  -74.4160   -4.0830 O         1 <0>         0.0070
  29904 WAT       -33.6820  -74.4160   -3.8330 O         1 <0>         0.0110
  29905 WAT       -33.6820  -74.4160   -3.5830 O         1 <0>         0.0201
  29906 WAT       -33.6820  -74.4160   -3.3330 O         1 <0>         0.0374
  29907 WAT       -33.6820  -74.4160   -3.0830 O         1 <0>         0.0621
  29908 WAT       -33.6820  -74.4160   -2.8330 O         1 <0>         0.0823
  29909 WAT       -33.6820  -74.4160   -2.5830 O         1 <0>         0.0824
  29910 WAT       -33.6820  -74.4160   -2.3330 O         1 <0>         0.0601
  29911 WAT       -33.6820  -74.4160   -2.0830 O         1 <0>         0.0309
  29912 WAT       -33.6820  -74.4160   -1.8330 O         1 <0>         0.0108
  29913 WAT       -33.6820  -74.4160   -1.5830 O         1 <0>         0.0023
  29914 WAT       -33.6820  -74.4160   -1.3330 O         1 <0>         0.0002
  29915 WAT       -33.6820  -74.4160   -1.0830 O         1 <0>         0.0000
  29916 WAT       -33.6820  -74.4160   -0.8330 O         1 <0>         0.0000
  29917 WAT       -33.6820  -74.4160   -0.5830 O         1 <0>         0.0000
  29918 WAT       -33.6820  -74.4160   -0.3330 O         1 <0>         0.0000
  29919 WAT       -33.6820  -74.4160   -0.0830 O         1 <0>         0.0000
  29920 WAT       -33.6820  -74.1660   -9.8330 O         1 <0>         0.0000
  29921 WAT       -33.6820  -74.1660   -9.5830 O         1 <0>         0.0000
  29922 WAT       -33.6820  -74.1660   -9.3330 O         1 <0>         0.0000
  29923 WAT       -33.6820  -74.1660   -9.0830 O         1 <0>         0.0000
  29924 WAT       -33.6820  -74.1660   -8.8330 O         1 <0>         0.0000
  29925 WAT       -33.6820  -74.1660   -8.5830 O         1 <0>         0.0000
  29926 WAT       -33.6820  -74.1660   -8.3330 O         1 <0>         0.0000
  29927 WAT       -33.6820  -74.1660   -8.0830 O         1 <0>         0.0000
  29928 WAT       -33.6820  -74.1660   -7.8330 O         1 <0>         0.0000
  29929 WAT       -33.6820  -74.1660   -7.5830 O         1 <0>         0.0000
  29930 WAT       -33.6820  -74.1660   -7.3330 O         1 <0>         0.0000
  29931 WAT       -33.6820  -74.1660   -7.0830 O         1 <0>         0.0002
  29932 WAT       -33.6820  -74.1660   -6.8330 O         1 <0>         0.0007
  29933 WAT       -33.6820  -74.1660   -6.5830 O         1 <0>         0.0020
  29934 WAT       -33.6820  -74.1660   -6.3330 O         1 <0>         0.0040
  29935 WAT       -33.6820  -74.1660   -6.0830 O         1 <0>         0.0066
  29936 WAT       -33.6820  -74.1660   -5.8330 O         1 <0>         0.0092
  29937 WAT       -33.6820  -74.1660   -5.5830 O         1 <0>         0.0111
  29938 WAT       -33.6820  -74.1660   -5.3330 O         1 <0>         0.0114
  29939 WAT       -33.6820  -74.1660   -5.0830 O         1 <0>         0.0096
  29940 WAT       -33.6820  -74.1660   -4.8330 O         1 <0>         0.0068
  29941 WAT       -33.6820  -74.1660   -4.5830 O         1 <0>         0.0046
  29942 WAT       -33.6820  -74.1660   -4.3330 O         1 <0>         0.0037
  29943 WAT       -33.6820  -74.1660   -4.0830 O         1 <0>         0.0043
  29944 WAT       -33.6820  -74.1660   -3.8330 O         1 <0>         0.0080
  29945 WAT       -33.6820  -74.1660   -3.5830 O         1 <0>         0.0186
  29946 WAT       -33.6820  -74.1660   -3.3330 O         1 <0>         0.0415
  29947 WAT       -33.6820  -74.1660   -3.0830 O         1 <0>         0.0757
  29948 WAT       -33.6820  -74.1660   -2.8330 O         1 <0>         0.1065
  29949 WAT       -33.6820  -74.1660   -2.5830 O         1 <0>         0.1121
  29950 WAT       -33.6820  -74.1660   -2.3330 O         1 <0>         0.0860
  29951 WAT       -33.6820  -74.1660   -2.0830 O         1 <0>         0.0468
  29952 WAT       -33.6820  -74.1660   -1.8330 O         1 <0>         0.0174
  29953 WAT       -33.6820  -74.1660   -1.5830 O         1 <0>         0.0041
  29954 WAT       -33.6820  -74.1660   -1.3330 O         1 <0>         0.0005
  29955 WAT       -33.6820  -74.1660   -1.0830 O         1 <0>         0.0000
  29956 WAT       -33.6820  -74.1660   -0.8330 O         1 <0>         0.0000
  29957 WAT       -33.6820  -74.1660   -0.5830 O         1 <0>         0.0000
  29958 WAT       -33.6820  -74.1660   -0.3330 O         1 <0>         0.0000
  29959 WAT       -33.6820  -74.1660   -0.0830 O         1 <0>         0.0000
  29960 WAT       -33.6820  -73.9160   -9.8330 O         1 <0>         0.0000
  29961 WAT       -33.6820  -73.9160   -9.5830 O         1 <0>         0.0000
  29962 WAT       -33.6820  -73.9160   -9.3330 O         1 <0>         0.0000
  29963 WAT       -33.6820  -73.9160   -9.0830 O         1 <0>         0.0000
  29964 WAT       -33.6820  -73.9160   -8.8330 O         1 <0>         0.0000
  29965 WAT       -33.6820  -73.9160   -8.5830 O         1 <0>         0.0000
  29966 WAT       -33.6820  -73.9160   -8.3330 O         1 <0>         0.0000
  29967 WAT       -33.6820  -73.9160   -8.0830 O         1 <0>         0.0000
  29968 WAT       -33.6820  -73.9160   -7.8330 O         1 <0>         0.0000
  29969 WAT       -33.6820  -73.9160   -7.5830 O         1 <0>         0.0000
  29970 WAT       -33.6820  -73.9160   -7.3330 O         1 <0>         0.0001
  29971 WAT       -33.6820  -73.9160   -7.0830 O         1 <0>         0.0004
  29972 WAT       -33.6820  -73.9160   -6.8330 O         1 <0>         0.0013
  29973 WAT       -33.6820  -73.9160   -6.5830 O         1 <0>         0.0032
  29974 WAT       -33.6820  -73.9160   -6.3330 O         1 <0>         0.0058
  29975 WAT       -33.6820  -73.9160   -6.0830 O         1 <0>         0.0090
  29976 WAT       -33.6820  -73.9160   -5.8330 O         1 <0>         0.0126
  29977 WAT       -33.6820  -73.9160   -5.5830 O         1 <0>         0.0157
  29978 WAT       -33.6820  -73.9160   -5.3330 O         1 <0>         0.0164
  29979 WAT       -33.6820  -73.9160   -5.0830 O         1 <0>         0.0136
  29980 WAT       -33.6820  -73.9160   -4.8330 O         1 <0>         0.0088
  29981 WAT       -33.6820  -73.9160   -4.5830 O         1 <0>         0.0047
  29982 WAT       -33.6820  -73.9160   -4.3330 O         1 <0>         0.0026
  29983 WAT       -33.6820  -73.9160   -4.0830 O         1 <0>         0.0028
  29984 WAT       -33.6820  -73.9160   -3.8330 O         1 <0>         0.0067
  29985 WAT       -33.6820  -73.9160   -3.5830 O         1 <0>         0.0186
  29986 WAT       -33.6820  -73.9160   -3.3330 O         1 <0>         0.0438
  29987 WAT       -33.6820  -73.9160   -3.0830 O         1 <0>         0.0800
  29988 WAT       -33.6820  -73.9160   -2.8330 O         1 <0>         0.1116
  29989 WAT       -33.6820  -73.9160   -2.5830 O         1 <0>         0.1179
  29990 WAT       -33.6820  -73.9160   -2.3330 O         1 <0>         0.0925
  29991 WAT       -33.6820  -73.9160   -2.0830 O         1 <0>         0.0523
  29992 WAT       -33.6820  -73.9160   -1.8330 O         1 <0>         0.0205
  29993 WAT       -33.6820  -73.9160   -1.5830 O         1 <0>         0.0053
  29994 WAT       -33.6820  -73.9160   -1.3330 O         1 <0>         0.0008
  29995 WAT       -33.6820  -73.9160   -1.0830 O         1 <0>         0.0000
  29996 WAT       -33.6820  -73.9160   -0.8330 O         1 <0>         0.0000
  29997 WAT       -33.6820  -73.9160   -0.5830 O         1 <0>         0.0000
  29998 WAT       -33.6820  -73.9160   -0.3330 O         1 <0>         0.0000
  29999 WAT       -33.6820  -73.9160   -0.0830 O         1 <0>         0.0000
  30000 WAT       -33.6820  -73.6660   -9.8330 O         1 <0>         0.0000
  30001 WAT       -33.6820  -73.6660   -9.5830 O         1 <0>         0.0000
  30002 WAT       -33.6820  -73.6660   -9.3330 O         1 <0>         0.0000
  30003 WAT       -33.6820  -73.6660   -9.0830 O         1 <0>         0.0000
  30004 WAT       -33.6820  -73.6660   -8.8330 O         1 <0>         0.0000
  30005 WAT       -33.6820  -73.6660   -8.5830 O         1 <0>         0.0000
  30006 WAT       -33.6820  -73.6660   -8.3330 O         1 <0>         0.0000
  30007 WAT       -33.6820  -73.6660   -8.0830 O         1 <0>         0.0000
  30008 WAT       -33.6820  -73.6660   -7.8330 O         1 <0>         0.0000
  30009 WAT       -33.6820  -73.6660   -7.5830 O         1 <0>         0.0000
  30010 WAT       -33.6820  -73.6660   -7.3330 O         1 <0>         0.0002
  30011 WAT       -33.6820  -73.6660   -7.0830 O         1 <0>         0.0008
  30012 WAT       -33.6820  -73.6660   -6.8330 O         1 <0>         0.0021
  30013 WAT       -33.6820  -73.6660   -6.5830 O         1 <0>         0.0040
  30014 WAT       -33.6820  -73.6660   -6.3330 O         1 <0>         0.0063
  30015 WAT       -33.6820  -73.6660   -6.0830 O         1 <0>         0.0092
  30016 WAT       -33.6820  -73.6660   -5.8330 O         1 <0>         0.0130
  30017 WAT       -33.6820  -73.6660   -5.5830 O         1 <0>         0.0170
  30018 WAT       -33.6820  -73.6660   -5.3330 O         1 <0>         0.0188
  30019 WAT       -33.6820  -73.6660   -5.0830 O         1 <0>         0.0161
  30020 WAT       -33.6820  -73.6660   -4.8330 O         1 <0>         0.0105
  30021 WAT       -33.6820  -73.6660   -4.5830 O         1 <0>         0.0052
  30022 WAT       -33.6820  -73.6660   -4.3330 O         1 <0>         0.0023
  30023 WAT       -33.6820  -73.6660   -4.0830 O         1 <0>         0.0021
  30024 WAT       -33.6820  -73.6660   -3.8330 O         1 <0>         0.0059
  30025 WAT       -33.6820  -73.6660   -3.5830 O         1 <0>         0.0174
  30026 WAT       -33.6820  -73.6660   -3.3330 O         1 <0>         0.0404
  30027 WAT       -33.6820  -73.6660   -3.0830 O         1 <0>         0.0706
  30028 WAT       -33.6820  -73.6660   -2.8330 O         1 <0>         0.0942
  30029 WAT       -33.6820  -73.6660   -2.5830 O         1 <0>         0.0972
  30030 WAT       -33.6820  -73.6660   -2.3330 O         1 <0>         0.0765
  30031 WAT       -33.6820  -73.6660   -2.0830 O         1 <0>         0.0446
  30032 WAT       -33.6820  -73.6660   -1.8330 O         1 <0>         0.0184
  30033 WAT       -33.6820  -73.6660   -1.5830 O         1 <0>         0.0051
  30034 WAT       -33.6820  -73.6660   -1.3330 O         1 <0>         0.0008
  30035 WAT       -33.6820  -73.6660   -1.0830 O         1 <0>         0.0001
  30036 WAT       -33.6820  -73.6660   -0.8330 O         1 <0>         0.0000
  30037 WAT       -33.6820  -73.6660   -0.5830 O         1 <0>         0.0000
  30038 WAT       -33.6820  -73.6660   -0.3330 O         1 <0>         0.0000
  30039 WAT       -33.6820  -73.6660   -0.0830 O         1 <0>         0.0000
  30040 WAT       -33.6820  -73.4160   -9.8330 O         1 <0>         0.0000
  30041 WAT       -33.6820  -73.4160   -9.5830 O         1 <0>         0.0000
  30042 WAT       -33.6820  -73.4160   -9.3330 O         1 <0>         0.0000
  30043 WAT       -33.6820  -73.4160   -9.0830 O         1 <0>         0.0000
  30044 WAT       -33.6820  -73.4160   -8.8330 O         1 <0>         0.0000
  30045 WAT       -33.6820  -73.4160   -8.5830 O         1 <0>         0.0000
  30046 WAT       -33.6820  -73.4160   -8.3330 O         1 <0>         0.0000
  30047 WAT       -33.6820  -73.4160   -8.0830 O         1 <0>         0.0000
  30048 WAT       -33.6820  -73.4160   -7.8330 O         1 <0>         0.0000
  30049 WAT       -33.6820  -73.4160   -7.5830 O         1 <0>         0.0001
  30050 WAT       -33.6820  -73.4160   -7.3330 O         1 <0>         0.0005
  30051 WAT       -33.6820  -73.4160   -7.0830 O         1 <0>         0.0017
  30052 WAT       -33.6820  -73.4160   -6.8330 O         1 <0>         0.0033
  30053 WAT       -33.6820  -73.4160   -6.5830 O         1 <0>         0.0047
  30054 WAT       -33.6820  -73.4160   -6.3330 O         1 <0>         0.0058
  30055 WAT       -33.6820  -73.4160   -6.0830 O         1 <0>         0.0075
  30056 WAT       -33.6820  -73.4160   -5.8330 O         1 <0>         0.0105
  30057 WAT       -33.6820  -73.4160   -5.5830 O         1 <0>         0.0144
  30058 WAT       -33.6820  -73.4160   -5.3330 O         1 <0>         0.0168
  30059 WAT       -33.6820  -73.4160   -5.0830 O         1 <0>         0.0152
  30060 WAT       -33.6820  -73.4160   -4.8330 O         1 <0>         0.0104
  30061 WAT       -33.6820  -73.4160   -4.5830 O         1 <0>         0.0053
  30062 WAT       -33.6820  -73.4160   -4.3330 O         1 <0>         0.0023
  30063 WAT       -33.6820  -73.4160   -4.0830 O         1 <0>         0.0018
  30064 WAT       -33.6820  -73.4160   -3.8330 O         1 <0>         0.0048
  30065 WAT       -33.6820  -73.4160   -3.5830 O         1 <0>         0.0145
  30066 WAT       -33.6820  -73.4160   -3.3330 O         1 <0>         0.0327
  30067 WAT       -33.6820  -73.4160   -3.0830 O         1 <0>         0.0544
  30068 WAT       -33.6820  -73.4160   -2.8330 O         1 <0>         0.0688
  30069 WAT       -33.6820  -73.4160   -2.5830 O         1 <0>         0.0684
  30070 WAT       -33.6820  -73.4160   -2.3330 O         1 <0>         0.0535
  30071 WAT       -33.6820  -73.4160   -2.0830 O         1 <0>         0.0319
  30072 WAT       -33.6820  -73.4160   -1.8330 O         1 <0>         0.0140
  30073 WAT       -33.6820  -73.4160   -1.5830 O         1 <0>         0.0042
  30074 WAT       -33.6820  -73.4160   -1.3330 O         1 <0>         0.0008
  30075 WAT       -33.6820  -73.4160   -1.0830 O         1 <0>         0.0001
  30076 WAT       -33.6820  -73.4160   -0.8330 O         1 <0>         0.0000
  30077 WAT       -33.6820  -73.4160   -0.5830 O         1 <0>         0.0000
  30078 WAT       -33.6820  -73.4160   -0.3330 O         1 <0>         0.0000
  30079 WAT       -33.6820  -73.4160   -0.0830 O         1 <0>         0.0000
  30080 WAT       -33.6820  -73.1660   -9.8330 O         1 <0>         0.0000
  30081 WAT       -33.6820  -73.1660   -9.5830 O         1 <0>         0.0000
  30082 WAT       -33.6820  -73.1660   -9.3330 O         1 <0>         0.0000
  30083 WAT       -33.6820  -73.1660   -9.0830 O         1 <0>         0.0000
  30084 WAT       -33.6820  -73.1660   -8.8330 O         1 <0>         0.0000
  30085 WAT       -33.6820  -73.1660   -8.5830 O         1 <0>         0.0000
  30086 WAT       -33.6820  -73.1660   -8.3330 O         1 <0>         0.0000
  30087 WAT       -33.6820  -73.1660   -8.0830 O         1 <0>         0.0000
  30088 WAT       -33.6820  -73.1660   -7.8330 O         1 <0>         0.0000
  30089 WAT       -33.6820  -73.1660   -7.5830 O         1 <0>         0.0002
  30090 WAT       -33.6820  -73.1660   -7.3330 O         1 <0>         0.0012
  30091 WAT       -33.6820  -73.1660   -7.0830 O         1 <0>         0.0032
  30092 WAT       -33.6820  -73.1660   -6.8330 O         1 <0>         0.0053
  30093 WAT       -33.6820  -73.1660   -6.5830 O         1 <0>         0.0060
  30094 WAT       -33.6820  -73.1660   -6.3330 O         1 <0>         0.0054
  30095 WAT       -33.6820  -73.1660   -6.0830 O         1 <0>         0.0051
  30096 WAT       -33.6820  -73.1660   -5.8330 O         1 <0>         0.0066
  30097 WAT       -33.6820  -73.1660   -5.5830 O         1 <0>         0.0095
  30098 WAT       -33.6820  -73.1660   -5.3330 O         1 <0>         0.0118
  30099 WAT       -33.6820  -73.1660   -5.0830 O         1 <0>         0.0114
  30100 WAT       -33.6820  -73.1660   -4.8330 O         1 <0>         0.0085
  30101 WAT       -33.6820  -73.1660   -4.5830 O         1 <0>         0.0049
  30102 WAT       -33.6820  -73.1660   -4.3330 O         1 <0>         0.0023
  30103 WAT       -33.6820  -73.1660   -4.0830 O         1 <0>         0.0015
  30104 WAT       -33.6820  -73.1660   -3.8330 O         1 <0>         0.0037
  30105 WAT       -33.6820  -73.1660   -3.5830 O         1 <0>         0.0115
  30106 WAT       -33.6820  -73.1660   -3.3330 O         1 <0>         0.0257
  30107 WAT       -33.6820  -73.1660   -3.0830 O         1 <0>         0.0412
  30108 WAT       -33.6820  -73.1660   -2.8330 O         1 <0>         0.0502
  30109 WAT       -33.6820  -73.1660   -2.5830 O         1 <0>         0.0480
  30110 WAT       -33.6820  -73.1660   -2.3330 O         1 <0>         0.0366
  30111 WAT       -33.6820  -73.1660   -2.0830 O         1 <0>         0.0217
  30112 WAT       -33.6820  -73.1660   -1.8330 O         1 <0>         0.0096
  30113 WAT       -33.6820  -73.1660   -1.5830 O         1 <0>         0.0030
  30114 WAT       -33.6820  -73.1660   -1.3330 O         1 <0>         0.0006
  30115 WAT       -33.6820  -73.1660   -1.0830 O         1 <0>         0.0001
  30116 WAT       -33.6820  -73.1660   -0.8330 O         1 <0>         0.0000
  30117 WAT       -33.6820  -73.1660   -0.5830 O         1 <0>         0.0000
  30118 WAT       -33.6820  -73.1660   -0.3330 O         1 <0>         0.0000
  30119 WAT       -33.6820  -73.1660   -0.0830 O         1 <0>         0.0000
  30120 WAT       -33.6820  -72.9160   -9.8330 O         1 <0>         0.0000
  30121 WAT       -33.6820  -72.9160   -9.5830 O         1 <0>         0.0000
  30122 WAT       -33.6820  -72.9160   -9.3330 O         1 <0>         0.0000
  30123 WAT       -33.6820  -72.9160   -9.0830 O         1 <0>         0.0000
  30124 WAT       -33.6820  -72.9160   -8.8330 O         1 <0>         0.0000
  30125 WAT       -33.6820  -72.9160   -8.5830 O         1 <0>         0.0000
  30126 WAT       -33.6820  -72.9160   -8.3330 O         1 <0>         0.0000
  30127 WAT       -33.6820  -72.9160   -8.0830 O         1 <0>         0.0000
  30128 WAT       -33.6820  -72.9160   -7.8330 O         1 <0>         0.0000
  30129 WAT       -33.6820  -72.9160   -7.5830 O         1 <0>         0.0005
  30130 WAT       -33.6820  -72.9160   -7.3330 O         1 <0>         0.0021
  30131 WAT       -33.6820  -72.9160   -7.0830 O         1 <0>         0.0050
  30132 WAT       -33.6820  -72.9160   -6.8330 O         1 <0>         0.0076
  30133 WAT       -33.6820  -72.9160   -6.5830 O         1 <0>         0.0074
  30134 WAT       -33.6820  -72.9160   -6.3330 O         1 <0>         0.0051
  30135 WAT       -33.6820  -72.9160   -6.0830 O         1 <0>         0.0033
  30136 WAT       -33.6820  -72.9160   -5.8330 O         1 <0>         0.0034
  30137 WAT       -33.6820  -72.9160   -5.5830 O         1 <0>         0.0050
  30138 WAT       -33.6820  -72.9160   -5.3330 O         1 <0>         0.0066
  30139 WAT       -33.6820  -72.9160   -5.0830 O         1 <0>         0.0072
  30140 WAT       -33.6820  -72.9160   -4.8330 O         1 <0>         0.0063
  30141 WAT       -33.6820  -72.9160   -4.5830 O         1 <0>         0.0043
  30142 WAT       -33.6820  -72.9160   -4.3330 O         1 <0>         0.0023
  30143 WAT       -33.6820  -72.9160   -4.0830 O         1 <0>         0.0014
  30144 WAT       -33.6820  -72.9160   -3.8330 O         1 <0>         0.0029
  30145 WAT       -33.6820  -72.9160   -3.5830 O         1 <0>         0.0090
  30146 WAT       -33.6820  -72.9160   -3.3330 O         1 <0>         0.0205
  30147 WAT       -33.6820  -72.9160   -3.0830 O         1 <0>         0.0331
  30148 WAT       -33.6820  -72.9160   -2.8330 O         1 <0>         0.0394
  30149 WAT       -33.6820  -72.9160   -2.5830 O         1 <0>         0.0359
  30150 WAT       -33.6820  -72.9160   -2.3330 O         1 <0>         0.0255
  30151 WAT       -33.6820  -72.9160   -2.0830 O         1 <0>         0.0140
  30152 WAT       -33.6820  -72.9160   -1.8330 O         1 <0>         0.0058
  30153 WAT       -33.6820  -72.9160   -1.5830 O         1 <0>         0.0017
  30154 WAT       -33.6820  -72.9160   -1.3330 O         1 <0>         0.0003
  30155 WAT       -33.6820  -72.9160   -1.0830 O         1 <0>         0.0000
  30156 WAT       -33.6820  -72.9160   -0.8330 O         1 <0>         0.0000
  30157 WAT       -33.6820  -72.9160   -0.5830 O         1 <0>         0.0000
  30158 WAT       -33.6820  -72.9160   -0.3330 O         1 <0>         0.0000
  30159 WAT       -33.6820  -72.9160   -0.0830 O         1 <0>         0.0000
  30160 WAT       -33.6820  -72.6660   -9.8330 O         1 <0>         0.0000
  30161 WAT       -33.6820  -72.6660   -9.5830 O         1 <0>         0.0000
  30162 WAT       -33.6820  -72.6660   -9.3330 O         1 <0>         0.0000
  30163 WAT       -33.6820  -72.6660   -9.0830 O         1 <0>         0.0000
  30164 WAT       -33.6820  -72.6660   -8.8330 O         1 <0>         0.0000
  30165 WAT       -33.6820  -72.6660   -8.5830 O         1 <0>         0.0000
  30166 WAT       -33.6820  -72.6660   -8.3330 O         1 <0>         0.0000
  30167 WAT       -33.6820  -72.6660   -8.0830 O         1 <0>         0.0000
  30168 WAT       -33.6820  -72.6660   -7.8330 O         1 <0>         0.0001
  30169 WAT       -33.6820  -72.6660   -7.5830 O         1 <0>         0.0009
  30170 WAT       -33.6820  -72.6660   -7.3330 O         1 <0>         0.0031
  30171 WAT       -33.6820  -72.6660   -7.0830 O         1 <0>         0.0064
  30172 WAT       -33.6820  -72.6660   -6.8330 O         1 <0>         0.0088
  30173 WAT       -33.6820  -72.6660   -6.5830 O         1 <0>         0.0078
  30174 WAT       -33.6820  -72.6660   -6.3330 O         1 <0>         0.0047
  30175 WAT       -33.6820  -72.6660   -6.0830 O         1 <0>         0.0023
  30176 WAT       -33.6820  -72.6660   -5.8330 O         1 <0>         0.0018
  30177 WAT       -33.6820  -72.6660   -5.5830 O         1 <0>         0.0025
  30178 WAT       -33.6820  -72.6660   -5.3330 O         1 <0>         0.0035
  30179 WAT       -33.6820  -72.6660   -5.0830 O         1 <0>         0.0043
  30180 WAT       -33.6820  -72.6660   -4.8330 O         1 <0>         0.0045
  30181 WAT       -33.6820  -72.6660   -4.5830 O         1 <0>         0.0038
  30182 WAT       -33.6820  -72.6660   -4.3330 O         1 <0>         0.0024
  30183 WAT       -33.6820  -72.6660   -4.0830 O         1 <0>         0.0013
  30184 WAT       -33.6820  -72.6660   -3.8330 O         1 <0>         0.0021
  30185 WAT       -33.6820  -72.6660   -3.5830 O         1 <0>         0.0064
  30186 WAT       -33.6820  -72.6660   -3.3330 O         1 <0>         0.0150
  30187 WAT       -33.6820  -72.6660   -3.0830 O         1 <0>         0.0243
  30188 WAT       -33.6820  -72.6660   -2.8330 O         1 <0>         0.0282
  30189 WAT       -33.6820  -72.6660   -2.5830 O         1 <0>         0.0241
  30190 WAT       -33.6820  -72.6660   -2.3330 O         1 <0>         0.0156
  30191 WAT       -33.6820  -72.6660   -2.0830 O         1 <0>         0.0077
  30192 WAT       -33.6820  -72.6660   -1.8330 O         1 <0>         0.0028
  30193 WAT       -33.6820  -72.6660   -1.5830 O         1 <0>         0.0007
  30194 WAT       -33.6820  -72.6660   -1.3330 O         1 <0>         0.0001
  30195 WAT       -33.6820  -72.6660   -1.0830 O         1 <0>         0.0000
  30196 WAT       -33.6820  -72.6660   -0.8330 O         1 <0>         0.0000
  30197 WAT       -33.6820  -72.6660   -0.5830 O         1 <0>         0.0000
  30198 WAT       -33.6820  -72.6660   -0.3330 O         1 <0>         0.0000
  30199 WAT       -33.6820  -72.6660   -0.0830 O         1 <0>         0.0000
  30200 WAT       -33.6820  -72.4160   -9.8330 O         1 <0>         0.0000
  30201 WAT       -33.6820  -72.4160   -9.5830 O         1 <0>         0.0000
  30202 WAT       -33.6820  -72.4160   -9.3330 O         1 <0>         0.0000
  30203 WAT       -33.6820  -72.4160   -9.0830 O         1 <0>         0.0000
  30204 WAT       -33.6820  -72.4160   -8.8330 O         1 <0>         0.0000
  30205 WAT       -33.6820  -72.4160   -8.5830 O         1 <0>         0.0000
  30206 WAT       -33.6820  -72.4160   -8.3330 O         1 <0>         0.0000
  30207 WAT       -33.6820  -72.4160   -8.0830 O         1 <0>         0.0000
  30208 WAT       -33.6820  -72.4160   -7.8330 O         1 <0>         0.0004
  30209 WAT       -33.6820  -72.4160   -7.5830 O         1 <0>         0.0017
  30210 WAT       -33.6820  -72.4160   -7.3330 O         1 <0>         0.0041
  30211 WAT       -33.6820  -72.4160   -7.0830 O         1 <0>         0.0069
  30212 WAT       -33.6820  -72.4160   -6.8330 O         1 <0>         0.0081
  30213 WAT       -33.6820  -72.4160   -6.5830 O         1 <0>         0.0066
  30214 WAT       -33.6820  -72.4160   -6.3330 O         1 <0>         0.0037
  30215 WAT       -33.6820  -72.4160   -6.0830 O         1 <0>         0.0017
  30216 WAT       -33.6820  -72.4160   -5.8330 O         1 <0>         0.0013
  30217 WAT       -33.6820  -72.4160   -5.5830 O         1 <0>         0.0017
  30218 WAT       -33.6820  -72.4160   -5.3330 O         1 <0>         0.0022
  30219 WAT       -33.6820  -72.4160   -5.0830 O         1 <0>         0.0027
  30220 WAT       -33.6820  -72.4160   -4.8330 O         1 <0>         0.0031
  30221 WAT       -33.6820  -72.4160   -4.5830 O         1 <0>         0.0029
  30222 WAT       -33.6820  -72.4160   -4.3330 O         1 <0>         0.0019
  30223 WAT       -33.6820  -72.4160   -4.0830 O         1 <0>         0.0010
  30224 WAT       -33.6820  -72.4160   -3.8330 O         1 <0>         0.0012
  30225 WAT       -33.6820  -72.4160   -3.5830 O         1 <0>         0.0035
  30226 WAT       -33.6820  -72.4160   -3.3330 O         1 <0>         0.0083
  30227 WAT       -33.6820  -72.4160   -3.0830 O         1 <0>         0.0134
  30228 WAT       -33.6820  -72.4160   -2.8330 O         1 <0>         0.0151
  30229 WAT       -33.6820  -72.4160   -2.5830 O         1 <0>         0.0121
  30230 WAT       -33.6820  -72.4160   -2.3330 O         1 <0>         0.0071
  30231 WAT       -33.6820  -72.4160   -2.0830 O         1 <0>         0.0030
  30232 WAT       -33.6820  -72.4160   -1.8330 O         1 <0>         0.0009
  30233 WAT       -33.6820  -72.4160   -1.5830 O         1 <0>         0.0002
  30234 WAT       -33.6820  -72.4160   -1.3330 O         1 <0>         0.0000
  30235 WAT       -33.6820  -72.4160   -1.0830 O         1 <0>         0.0000
  30236 WAT       -33.6820  -72.4160   -0.8330 O         1 <0>         0.0000
  30237 WAT       -33.6820  -72.4160   -0.5830 O         1 <0>         0.0000
  30238 WAT       -33.6820  -72.4160   -0.3330 O         1 <0>         0.0000
  30239 WAT       -33.6820  -72.4160   -0.0830 O         1 <0>         0.0000
  30240 WAT       -33.6820  -72.1660   -9.8330 O         1 <0>         0.0000
  30241 WAT       -33.6820  -72.1660   -9.5830 O         1 <0>         0.0000
  30242 WAT       -33.6820  -72.1660   -9.3330 O         1 <0>         0.0000
  30243 WAT       -33.6820  -72.1660   -9.0830 O         1 <0>         0.0000
  30244 WAT       -33.6820  -72.1660   -8.8330 O         1 <0>         0.0000
  30245 WAT       -33.6820  -72.1660   -8.5830 O         1 <0>         0.0000
  30246 WAT       -33.6820  -72.1660   -8.3330 O         1 <0>         0.0000
  30247 WAT       -33.6820  -72.1660   -8.0830 O         1 <0>         0.0002
  30248 WAT       -33.6820  -72.1660   -7.8330 O         1 <0>         0.0010
  30249 WAT       -33.6820  -72.1660   -7.5830 O         1 <0>         0.0028
  30250 WAT       -33.6820  -72.1660   -7.3330 O         1 <0>         0.0052
  30251 WAT       -33.6820  -72.1660   -7.0830 O         1 <0>         0.0067
  30252 WAT       -33.6820  -72.1660   -6.8330 O         1 <0>         0.0065
  30253 WAT       -33.6820  -72.1660   -6.5830 O         1 <0>         0.0046
  30254 WAT       -33.6820  -72.1660   -6.3330 O         1 <0>         0.0024
  30255 WAT       -33.6820  -72.1660   -6.0830 O         1 <0>         0.0013
  30256 WAT       -33.6820  -72.1660   -5.8330 O         1 <0>         0.0013
  30257 WAT       -33.6820  -72.1660   -5.5830 O         1 <0>         0.0016
  30258 WAT       -33.6820  -72.1660   -5.3330 O         1 <0>         0.0017
  30259 WAT       -33.6820  -72.1660   -5.0830 O         1 <0>         0.0018
  30260 WAT       -33.6820  -72.1660   -4.8330 O         1 <0>         0.0018
  30261 WAT       -33.6820  -72.1660   -4.5830 O         1 <0>         0.0016
  30262 WAT       -33.6820  -72.1660   -4.3330 O         1 <0>         0.0011
  30263 WAT       -33.6820  -72.1660   -4.0830 O         1 <0>         0.0006
  30264 WAT       -33.6820  -72.1660   -3.8330 O         1 <0>         0.0004
  30265 WAT       -33.6820  -72.1660   -3.5830 O         1 <0>         0.0012
  30266 WAT       -33.6820  -72.1660   -3.3330 O         1 <0>         0.0030
  30267 WAT       -33.6820  -72.1660   -3.0830 O         1 <0>         0.0049
  30268 WAT       -33.6820  -72.1660   -2.8330 O         1 <0>         0.0054
  30269 WAT       -33.6820  -72.1660   -2.5830 O         1 <0>         0.0041
  30270 WAT       -33.6820  -72.1660   -2.3330 O         1 <0>         0.0022
  30271 WAT       -33.6820  -72.1660   -2.0830 O         1 <0>         0.0008
  30272 WAT       -33.6820  -72.1660   -1.8330 O         1 <0>         0.0002
  30273 WAT       -33.6820  -72.1660   -1.5830 O         1 <0>         0.0000
  30274 WAT       -33.6820  -72.1660   -1.3330 O         1 <0>         0.0000
  30275 WAT       -33.6820  -72.1660   -1.0830 O         1 <0>         0.0000
  30276 WAT       -33.6820  -72.1660   -0.8330 O         1 <0>         0.0000
  30277 WAT       -33.6820  -72.1660   -0.5830 O         1 <0>         0.0000
  30278 WAT       -33.6820  -72.1660   -0.3330 O         1 <0>         0.0000
  30279 WAT       -33.6820  -72.1660   -0.0830 O         1 <0>         0.0000
  30280 WAT       -33.6820  -71.9160   -9.8330 O         1 <0>         0.0000
  30281 WAT       -33.6820  -71.9160   -9.5830 O         1 <0>         0.0000
  30282 WAT       -33.6820  -71.9160   -9.3330 O         1 <0>         0.0000
  30283 WAT       -33.6820  -71.9160   -9.0830 O         1 <0>         0.0000
  30284 WAT       -33.6820  -71.9160   -8.8330 O         1 <0>         0.0000
  30285 WAT       -33.6820  -71.9160   -8.5830 O         1 <0>         0.0000
  30286 WAT       -33.6820  -71.9160   -8.3330 O         1 <0>         0.0000
  30287 WAT       -33.6820  -71.9160   -8.0830 O         1 <0>         0.0003
  30288 WAT       -33.6820  -71.9160   -7.8330 O         1 <0>         0.0017
  30289 WAT       -33.6820  -71.9160   -7.5830 O         1 <0>         0.0042
  30290 WAT       -33.6820  -71.9160   -7.3330 O         1 <0>         0.0065
  30291 WAT       -33.6820  -71.9160   -7.0830 O         1 <0>         0.0069
  30292 WAT       -33.6820  -71.9160   -6.8330 O         1 <0>         0.0054
  30293 WAT       -33.6820  -71.9160   -6.5830 O         1 <0>         0.0033
  30294 WAT       -33.6820  -71.9160   -6.3330 O         1 <0>         0.0017
  30295 WAT       -33.6820  -71.9160   -6.0830 O         1 <0>         0.0011
  30296 WAT       -33.6820  -71.9160   -5.8330 O         1 <0>         0.0012
  30297 WAT       -33.6820  -71.9160   -5.5830 O         1 <0>         0.0013
  30298 WAT       -33.6820  -71.9160   -5.3330 O         1 <0>         0.0012
  30299 WAT       -33.6820  -71.9160   -5.0830 O         1 <0>         0.0009
  30300 WAT       -33.6820  -71.9160   -4.8330 O         1 <0>         0.0008
  30301 WAT       -33.6820  -71.9160   -4.5830 O         1 <0>         0.0006
  30302 WAT       -33.6820  -71.9160   -4.3330 O         1 <0>         0.0004
  30303 WAT       -33.6820  -71.9160   -4.0830 O         1 <0>         0.0002
  30304 WAT       -33.6820  -71.9160   -3.8330 O         1 <0>         0.0001
  30305 WAT       -33.6820  -71.9160   -3.5830 O         1 <0>         0.0002
  30306 WAT       -33.6820  -71.9160   -3.3330 O         1 <0>         0.0006
  30307 WAT       -33.6820  -71.9160   -3.0830 O         1 <0>         0.0010
  30308 WAT       -33.6820  -71.9160   -2.8330 O         1 <0>         0.0011
  30309 WAT       -33.6820  -71.9160   -2.5830 O         1 <0>         0.0008
  30310 WAT       -33.6820  -71.9160   -2.3330 O         1 <0>         0.0004
  30311 WAT       -33.6820  -71.9160   -2.0830 O         1 <0>         0.0001
  30312 WAT       -33.6820  -71.9160   -1.8330 O         1 <0>         0.0000
  30313 WAT       -33.6820  -71.9160   -1.5830 O         1 <0>         0.0000
  30314 WAT       -33.6820  -71.9160   -1.3330 O         1 <0>         0.0000
  30315 WAT       -33.6820  -71.9160   -1.0830 O         1 <0>         0.0000
  30316 WAT       -33.6820  -71.9160   -0.8330 O         1 <0>         0.0000
  30317 WAT       -33.6820  -71.9160   -0.5830 O         1 <0>         0.0000
  30318 WAT       -33.6820  -71.9160   -0.3330 O         1 <0>         0.0000
  30319 WAT       -33.6820  -71.9160   -0.0830 O         1 <0>         0.0000
  30320 WAT       -33.6820  -71.6660   -9.8330 O         1 <0>         0.0000
  30321 WAT       -33.6820  -71.6660   -9.5830 O         1 <0>         0.0000
  30322 WAT       -33.6820  -71.6660   -9.3330 O         1 <0>         0.0000
  30323 WAT       -33.6820  -71.6660   -9.0830 O         1 <0>         0.0000
  30324 WAT       -33.6820  -71.6660   -8.8330 O         1 <0>         0.0000
  30325 WAT       -33.6820  -71.6660   -8.5830 O         1 <0>         0.0000
  30326 WAT       -33.6820  -71.6660   -8.3330 O         1 <0>         0.0000
  30327 WAT       -33.6820  -71.6660   -8.0830 O         1 <0>         0.0005
  30328 WAT       -33.6820  -71.6660   -7.8330 O         1 <0>         0.0021
  30329 WAT       -33.6820  -71.6660   -7.5830 O         1 <0>         0.0051
  30330 WAT       -33.6820  -71.6660   -7.3330 O         1 <0>         0.0075
  30331 WAT       -33.6820  -71.6660   -7.0830 O         1 <0>         0.0075
  30332 WAT       -33.6820  -71.6660   -6.8330 O         1 <0>         0.0055
  30333 WAT       -33.6820  -71.6660   -6.5830 O         1 <0>         0.0032
  30334 WAT       -33.6820  -71.6660   -6.3330 O         1 <0>         0.0018
  30335 WAT       -33.6820  -71.6660   -6.0830 O         1 <0>         0.0012
  30336 WAT       -33.6820  -71.6660   -5.8330 O         1 <0>         0.0010
  30337 WAT       -33.6820  -71.6660   -5.5830 O         1 <0>         0.0009
  30338 WAT       -33.6820  -71.6660   -5.3330 O         1 <0>         0.0006
  30339 WAT       -33.6820  -71.6660   -5.0830 O         1 <0>         0.0004
  30340 WAT       -33.6820  -71.6660   -4.8330 O         1 <0>         0.0002
  30341 WAT       -33.6820  -71.6660   -4.5830 O         1 <0>         0.0002
  30342 WAT       -33.6820  -71.6660   -4.3330 O         1 <0>         0.0001
  30343 WAT       -33.6820  -71.6660   -4.0830 O         1 <0>         0.0000
  30344 WAT       -33.6820  -71.6660   -3.8330 O         1 <0>         0.0000
  30345 WAT       -33.6820  -71.6660   -3.5830 O         1 <0>         0.0000
  30346 WAT       -33.6820  -71.6660   -3.3330 O         1 <0>         0.0000
  30347 WAT       -33.6820  -71.6660   -3.0830 O         1 <0>         0.0001
  30348 WAT       -33.6820  -71.6660   -2.8330 O         1 <0>         0.0001
  30349 WAT       -33.6820  -71.6660   -2.5830 O         1 <0>         0.0000
  30350 WAT       -33.6820  -71.6660   -2.3330 O         1 <0>         0.0000
  30351 WAT       -33.6820  -71.6660   -2.0830 O         1 <0>         0.0000
  30352 WAT       -33.6820  -71.6660   -1.8330 O         1 <0>         0.0000
  30353 WAT       -33.6820  -71.6660   -1.5830 O         1 <0>         0.0000
  30354 WAT       -33.6820  -71.6660   -1.3330 O         1 <0>         0.0000
  30355 WAT       -33.6820  -71.6660   -1.0830 O         1 <0>         0.0000
  30356 WAT       -33.6820  -71.6660   -0.8330 O         1 <0>         0.0000
  30357 WAT       -33.6820  -71.6660   -0.5830 O         1 <0>         0.0000
  30358 WAT       -33.6820  -71.6660   -0.3330 O         1 <0>         0.0000
  30359 WAT       -33.6820  -71.6660   -0.0830 O         1 <0>         0.0000
  30360 WAT       -33.6820  -71.4160   -9.8330 O         1 <0>         0.0000
  30361 WAT       -33.6820  -71.4160   -9.5830 O         1 <0>         0.0000
  30362 WAT       -33.6820  -71.4160   -9.3330 O         1 <0>         0.0000
  30363 WAT       -33.6820  -71.4160   -9.0830 O         1 <0>         0.0000
  30364 WAT       -33.6820  -71.4160   -8.8330 O         1 <0>         0.0000
  30365 WAT       -33.6820  -71.4160   -8.5830 O         1 <0>         0.0000
  30366 WAT       -33.6820  -71.4160   -8.3330 O         1 <0>         0.0000
  30367 WAT       -33.6820  -71.4160   -8.0830 O         1 <0>         0.0005
  30368 WAT       -33.6820  -71.4160   -7.8330 O         1 <0>         0.0022
  30369 WAT       -33.6820  -71.4160   -7.5830 O         1 <0>         0.0053
  30370 WAT       -33.6820  -71.4160   -7.3330 O         1 <0>         0.0081
  30371 WAT       -33.6820  -71.4160   -7.0830 O         1 <0>         0.0085
  30372 WAT       -33.6820  -71.4160   -6.8330 O         1 <0>         0.0068
  30373 WAT       -33.6820  -71.4160   -6.5830 O         1 <0>         0.0046
  30374 WAT       -33.6820  -71.4160   -6.3330 O         1 <0>         0.0033
  30375 WAT       -33.6820  -71.4160   -6.0830 O         1 <0>         0.0024
  30376 WAT       -33.6820  -71.4160   -5.8330 O         1 <0>         0.0013
  30377 WAT       -33.6820  -71.4160   -5.5830 O         1 <0>         0.0006
  30378 WAT       -33.6820  -71.4160   -5.3330 O         1 <0>         0.0002
  30379 WAT       -33.6820  -71.4160   -5.0830 O         1 <0>         0.0001
  30380 WAT       -33.6820  -71.4160   -4.8330 O         1 <0>         0.0000
  30381 WAT       -33.6820  -71.4160   -4.5830 O         1 <0>         0.0000
  30382 WAT       -33.6820  -71.4160   -4.3330 O         1 <0>         0.0000
  30383 WAT       -33.6820  -71.4160   -4.0830 O         1 <0>         0.0000
  30384 WAT       -33.6820  -71.4160   -3.8330 O         1 <0>         0.0000
  30385 WAT       -33.6820  -71.4160   -3.5830 O         1 <0>         0.0000
  30386 WAT       -33.6820  -71.4160   -3.3330 O         1 <0>         0.0000
  30387 WAT       -33.6820  -71.4160   -3.0830 O         1 <0>         0.0000
  30388 WAT       -33.6820  -71.4160   -2.8330 O         1 <0>         0.0000
  30389 WAT       -33.6820  -71.4160   -2.5830 O         1 <0>         0.0000
  30390 WAT       -33.6820  -71.4160   -2.3330 O         1 <0>         0.0000
  30391 WAT       -33.6820  -71.4160   -2.0830 O         1 <0>         0.0000
  30392 WAT       -33.6820  -71.4160   -1.8330 O         1 <0>         0.0000
  30393 WAT       -33.6820  -71.4160   -1.5830 O         1 <0>         0.0000
  30394 WAT       -33.6820  -71.4160   -1.3330 O         1 <0>         0.0000
  30395 WAT       -33.6820  -71.4160   -1.0830 O         1 <0>         0.0000
  30396 WAT       -33.6820  -71.4160   -0.8330 O         1 <0>         0.0000
  30397 WAT       -33.6820  -71.4160   -0.5830 O         1 <0>         0.0000
  30398 WAT       -33.6820  -71.4160   -0.3330 O         1 <0>         0.0000
  30399 WAT       -33.6820  -71.4160   -0.0830 O         1 <0>         0.0000
  30400 WAT       -33.6820  -71.1660   -9.8330 O         1 <0>         0.0000
  30401 WAT       -33.6820  -71.1660   -9.5830 O         1 <0>         0.0000
  30402 WAT       -33.6820  -71.1660   -9.3330 O         1 <0>         0.0000
  30403 WAT       -33.6820  -71.1660   -9.0830 O         1 <0>         0.0000
  30404 WAT       -33.6820  -71.1660   -8.8330 O         1 <0>         0.0000
  30405 WAT       -33.6820  -71.1660   -8.5830 O         1 <0>         0.0000
  30406 WAT       -33.6820  -71.1660   -8.3330 O         1 <0>         0.0000
  30407 WAT       -33.6820  -71.1660   -8.0830 O         1 <0>         0.0005
  30408 WAT       -33.6820  -71.1660   -7.8330 O         1 <0>         0.0021
  30409 WAT       -33.6820  -71.1660   -7.5830 O         1 <0>         0.0056
  30410 WAT       -33.6820  -71.1660   -7.3330 O         1 <0>         0.0094
  30411 WAT       -33.6820  -71.1660   -7.0830 O         1 <0>         0.0111
  30412 WAT       -33.6820  -71.1660   -6.8330 O         1 <0>         0.0107
  30413 WAT       -33.6820  -71.1660   -6.5830 O         1 <0>         0.0100
  30414 WAT       -33.6820  -71.1660   -6.3330 O         1 <0>         0.0089
  30415 WAT       -33.6820  -71.1660   -6.0830 O         1 <0>         0.0062
  30416 WAT       -33.6820  -71.1660   -5.8330 O         1 <0>         0.0028
  30417 WAT       -33.6820  -71.1660   -5.5830 O         1 <0>         0.0007
  30418 WAT       -33.6820  -71.1660   -5.3330 O         1 <0>         0.0001
  30419 WAT       -33.6820  -71.1660   -5.0830 O         1 <0>         0.0000
  30420 WAT       -33.6820  -71.1660   -4.8330 O         1 <0>         0.0000
  30421 WAT       -33.6820  -71.1660   -4.5830 O         1 <0>         0.0000
  30422 WAT       -33.6820  -71.1660   -4.3330 O         1 <0>         0.0000
  30423 WAT       -33.6820  -71.1660   -4.0830 O         1 <0>         0.0000
  30424 WAT       -33.6820  -71.1660   -3.8330 O         1 <0>         0.0000
  30425 WAT       -33.6820  -71.1660   -3.5830 O         1 <0>         0.0000
  30426 WAT       -33.6820  -71.1660   -3.3330 O         1 <0>         0.0000
  30427 WAT       -33.6820  -71.1660   -3.0830 O         1 <0>         0.0000
  30428 WAT       -33.6820  -71.1660   -2.8330 O         1 <0>         0.0000
  30429 WAT       -33.6820  -71.1660   -2.5830 O         1 <0>         0.0000
  30430 WAT       -33.6820  -71.1660   -2.3330 O         1 <0>         0.0000
  30431 WAT       -33.6820  -71.1660   -2.0830 O         1 <0>         0.0000
  30432 WAT       -33.6820  -71.1660   -1.8330 O         1 <0>         0.0000
  30433 WAT       -33.6820  -71.1660   -1.5830 O         1 <0>         0.0000
  30434 WAT       -33.6820  -71.1660   -1.3330 O         1 <0>         0.0000
  30435 WAT       -33.6820  -71.1660   -1.0830 O         1 <0>         0.0000
  30436 WAT       -33.6820  -71.1660   -0.8330 O         1 <0>         0.0000
  30437 WAT       -33.6820  -71.1660   -0.5830 O         1 <0>         0.0000
  30438 WAT       -33.6820  -71.1660   -0.3330 O         1 <0>         0.0000
  30439 WAT       -33.6820  -71.1660   -0.0830 O         1 <0>         0.0000
  30440 WAT       -33.6820  -70.9160   -9.8330 O         1 <0>         0.0000
  30441 WAT       -33.6820  -70.9160   -9.5830 O         1 <0>         0.0000
  30442 WAT       -33.6820  -70.9160   -9.3330 O         1 <0>         0.0000
  30443 WAT       -33.6820  -70.9160   -9.0830 O         1 <0>         0.0000
  30444 WAT       -33.6820  -70.9160   -8.8330 O         1 <0>         0.0000
  30445 WAT       -33.6820  -70.9160   -8.5830 O         1 <0>         0.0000
  30446 WAT       -33.6820  -70.9160   -8.3330 O         1 <0>         0.0000
  30447 WAT       -33.6820  -70.9160   -8.0830 O         1 <0>         0.0005
  30448 WAT       -33.6820  -70.9160   -7.8330 O         1 <0>         0.0023
  30449 WAT       -33.6820  -70.9160   -7.5830 O         1 <0>         0.0064
  30450 WAT       -33.6820  -70.9160   -7.3330 O         1 <0>         0.0117
  30451 WAT       -33.6820  -70.9160   -7.0830 O         1 <0>         0.0162
  30452 WAT       -33.6820  -70.9160   -6.8330 O         1 <0>         0.0196
  30453 WAT       -33.6820  -70.9160   -6.5830 O         1 <0>         0.0222
  30454 WAT       -33.6820  -70.9160   -6.3330 O         1 <0>         0.0215
  30455 WAT       -33.6820  -70.9160   -6.0830 O         1 <0>         0.0148
  30456 WAT       -33.6820  -70.9160   -5.8330 O         1 <0>         0.0063
  30457 WAT       -33.6820  -70.9160   -5.5830 O         1 <0>         0.0013
  30458 WAT       -33.6820  -70.9160   -5.3330 O         1 <0>         0.0001
  30459 WAT       -33.6820  -70.9160   -5.0830 O         1 <0>         0.0000
  30460 WAT       -33.6820  -70.9160   -4.8330 O         1 <0>         0.0000
  30461 WAT       -33.6820  -70.9160   -4.5830 O         1 <0>         0.0000
  30462 WAT       -33.6820  -70.9160   -4.3330 O         1 <0>         0.0000
  30463 WAT       -33.6820  -70.9160   -4.0830 O         1 <0>         0.0000
  30464 WAT       -33.6820  -70.9160   -3.8330 O         1 <0>         0.0000
  30465 WAT       -33.6820  -70.9160   -3.5830 O         1 <0>         0.0000
  30466 WAT       -33.6820  -70.9160   -3.3330 O         1 <0>         0.0000
  30467 WAT       -33.6820  -70.9160   -3.0830 O         1 <0>         0.0000
  30468 WAT       -33.6820  -70.9160   -2.8330 O         1 <0>         0.0000
  30469 WAT       -33.6820  -70.9160   -2.5830 O         1 <0>         0.0000
  30470 WAT       -33.6820  -70.9160   -2.3330 O         1 <0>         0.0000
  30471 WAT       -33.6820  -70.9160   -2.0830 O         1 <0>         0.0000
  30472 WAT       -33.6820  -70.9160   -1.8330 O         1 <0>         0.0000
  30473 WAT       -33.6820  -70.9160   -1.5830 O         1 <0>         0.0000
  30474 WAT       -33.6820  -70.9160   -1.3330 O         1 <0>         0.0000
  30475 WAT       -33.6820  -70.9160   -1.0830 O         1 <0>         0.0000
  30476 WAT       -33.6820  -70.9160   -0.8330 O         1 <0>         0.0000
  30477 WAT       -33.6820  -70.9160   -0.5830 O         1 <0>         0.0000
  30478 WAT       -33.6820  -70.9160   -0.3330 O         1 <0>         0.0000
  30479 WAT       -33.6820  -70.9160   -0.0830 O         1 <0>         0.0000
  30480 WAT       -33.6820  -70.6660   -9.8330 O         1 <0>         0.0000
  30481 WAT       -33.6820  -70.6660   -9.5830 O         1 <0>         0.0000
  30482 WAT       -33.6820  -70.6660   -9.3330 O         1 <0>         0.0000
  30483 WAT       -33.6820  -70.6660   -9.0830 O         1 <0>         0.0000
  30484 WAT       -33.6820  -70.6660   -8.8330 O         1 <0>         0.0000
  30485 WAT       -33.6820  -70.6660   -8.5830 O         1 <0>         0.0000
  30486 WAT       -33.6820  -70.6660   -8.3330 O         1 <0>         0.0001
  30487 WAT       -33.6820  -70.6660   -8.0830 O         1 <0>         0.0005
  30488 WAT       -33.6820  -70.6660   -7.8330 O         1 <0>         0.0024
  30489 WAT       -33.6820  -70.6660   -7.5830 O         1 <0>         0.0070
  30490 WAT       -33.6820  -70.6660   -7.3330 O         1 <0>         0.0140
  30491 WAT       -33.6820  -70.6660   -7.0830 O         1 <0>         0.0223
  30492 WAT       -33.6820  -70.6660   -6.8330 O         1 <0>         0.0317
  30493 WAT       -33.6820  -70.6660   -6.5830 O         1 <0>         0.0400
  30494 WAT       -33.6820  -70.6660   -6.3330 O         1 <0>         0.0395
  30495 WAT       -33.6820  -70.6660   -6.0830 O         1 <0>         0.0270
  30496 WAT       -33.6820  -70.6660   -5.8330 O         1 <0>         0.0113
  30497 WAT       -33.6820  -70.6660   -5.5830 O         1 <0>         0.0023
  30498 WAT       -33.6820  -70.6660   -5.3330 O         1 <0>         0.0001
  30499 WAT       -33.6820  -70.6660   -5.0830 O         1 <0>         0.0000
  30500 WAT       -33.6820  -70.6660   -4.8330 O         1 <0>         0.0000
  30501 WAT       -33.6820  -70.6660   -4.5830 O         1 <0>         0.0000
  30502 WAT       -33.6820  -70.6660   -4.3330 O         1 <0>         0.0000
  30503 WAT       -33.6820  -70.6660   -4.0830 O         1 <0>         0.0000
  30504 WAT       -33.6820  -70.6660   -3.8330 O         1 <0>         0.0000
  30505 WAT       -33.6820  -70.6660   -3.5830 O         1 <0>         0.0000
  30506 WAT       -33.6820  -70.6660   -3.3330 O         1 <0>         0.0000
  30507 WAT       -33.6820  -70.6660   -3.0830 O         1 <0>         0.0000
  30508 WAT       -33.6820  -70.6660   -2.8330 O         1 <0>         0.0000
  30509 WAT       -33.6820  -70.6660   -2.5830 O         1 <0>         0.0000
  30510 WAT       -33.6820  -70.6660   -2.3330 O         1 <0>         0.0000
  30511 WAT       -33.6820  -70.6660   -2.0830 O         1 <0>         0.0000
  30512 WAT       -33.6820  -70.6660   -1.8330 O         1 <0>         0.0000
  30513 WAT       -33.6820  -70.6660   -1.5830 O         1 <0>         0.0000
  30514 WAT       -33.6820  -70.6660   -1.3330 O         1 <0>         0.0000
  30515 WAT       -33.6820  -70.6660   -1.0830 O         1 <0>         0.0000
  30516 WAT       -33.6820  -70.6660   -0.8330 O         1 <0>         0.0000
  30517 WAT       -33.6820  -70.6660   -0.5830 O         1 <0>         0.0000
  30518 WAT       -33.6820  -70.6660   -0.3330 O         1 <0>         0.0000
  30519 WAT       -33.6820  -70.6660   -0.0830 O         1 <0>         0.0000
  30520 WAT       -33.6820  -70.4160   -9.8330 O         1 <0>         0.0000
  30521 WAT       -33.6820  -70.4160   -9.5830 O         1 <0>         0.0000
  30522 WAT       -33.6820  -70.4160   -9.3330 O         1 <0>         0.0000
  30523 WAT       -33.6820  -70.4160   -9.0830 O         1 <0>         0.0000
  30524 WAT       -33.6820  -70.4160   -8.8330 O         1 <0>         0.0000
  30525 WAT       -33.6820  -70.4160   -8.5830 O         1 <0>         0.0000
  30526 WAT       -33.6820  -70.4160   -8.3330 O         1 <0>         0.0000
  30527 WAT       -33.6820  -70.4160   -8.0830 O         1 <0>         0.0004
  30528 WAT       -33.6820  -70.4160   -7.8330 O         1 <0>         0.0021
  30529 WAT       -33.6820  -70.4160   -7.5830 O         1 <0>         0.0063
  30530 WAT       -33.6820  -70.4160   -7.3330 O         1 <0>         0.0138
  30531 WAT       -33.6820  -70.4160   -7.0830 O         1 <0>         0.0247
  30532 WAT       -33.6820  -70.4160   -6.8330 O         1 <0>         0.0393
  30533 WAT       -33.6820  -70.4160   -6.5830 O         1 <0>         0.0525
  30534 WAT       -33.6820  -70.4160   -6.3330 O         1 <0>         0.0523
  30535 WAT       -33.6820  -70.4160   -6.0830 O         1 <0>         0.0352
  30536 WAT       -33.6820  -70.4160   -5.8330 O         1 <0>         0.0146
  30537 WAT       -33.6820  -70.4160   -5.5830 O         1 <0>         0.0031
  30538 WAT       -33.6820  -70.4160   -5.3330 O         1 <0>         0.0002
  30539 WAT       -33.6820  -70.4160   -5.0830 O         1 <0>         0.0000
  30540 WAT       -33.6820  -70.4160   -4.8330 O         1 <0>         0.0000
  30541 WAT       -33.6820  -70.4160   -4.5830 O         1 <0>         0.0000
  30542 WAT       -33.6820  -70.4160   -4.3330 O         1 <0>         0.0000
  30543 WAT       -33.6820  -70.4160   -4.0830 O         1 <0>         0.0000
  30544 WAT       -33.6820  -70.4160   -3.8330 O         1 <0>         0.0000
  30545 WAT       -33.6820  -70.4160   -3.5830 O         1 <0>         0.0000
  30546 WAT       -33.6820  -70.4160   -3.3330 O         1 <0>         0.0000
  30547 WAT       -33.6820  -70.4160   -3.0830 O         1 <0>         0.0000
  30548 WAT       -33.6820  -70.4160   -2.8330 O         1 <0>         0.0000
  30549 WAT       -33.6820  -70.4160   -2.5830 O         1 <0>         0.0000
  30550 WAT       -33.6820  -70.4160   -2.3330 O         1 <0>         0.0000
  30551 WAT       -33.6820  -70.4160   -2.0830 O         1 <0>         0.0000
  30552 WAT       -33.6820  -70.4160   -1.8330 O         1 <0>         0.0000
  30553 WAT       -33.6820  -70.4160   -1.5830 O         1 <0>         0.0000
  30554 WAT       -33.6820  -70.4160   -1.3330 O         1 <0>         0.0000
  30555 WAT       -33.6820  -70.4160   -1.0830 O         1 <0>         0.0000
  30556 WAT       -33.6820  -70.4160   -0.8330 O         1 <0>         0.0000
  30557 WAT       -33.6820  -70.4160   -0.5830 O         1 <0>         0.0000
  30558 WAT       -33.6820  -70.4160   -0.3330 O         1 <0>         0.0000
  30559 WAT       -33.6820  -70.4160   -0.0830 O         1 <0>         0.0000
  30560 WAT       -33.6820  -70.1660   -9.8330 O         1 <0>         0.0000
  30561 WAT       -33.6820  -70.1660   -9.5830 O         1 <0>         0.0000
  30562 WAT       -33.6820  -70.1660   -9.3330 O         1 <0>         0.0000
  30563 WAT       -33.6820  -70.1660   -9.0830 O         1 <0>         0.0000
  30564 WAT       -33.6820  -70.1660   -8.8330 O         1 <0>         0.0000
  30565 WAT       -33.6820  -70.1660   -8.5830 O         1 <0>         0.0000
  30566 WAT       -33.6820  -70.1660   -8.3330 O         1 <0>         0.0000
  30567 WAT       -33.6820  -70.1660   -8.0830 O         1 <0>         0.0002
  30568 WAT       -33.6820  -70.1660   -7.8330 O         1 <0>         0.0013
  30569 WAT       -33.6820  -70.1660   -7.5830 O         1 <0>         0.0043
  30570 WAT       -33.6820  -70.1660   -7.3330 O         1 <0>         0.0101
  30571 WAT       -33.6820  -70.1660   -7.0830 O         1 <0>         0.0201
  30572 WAT       -33.6820  -70.1660   -6.8330 O         1 <0>         0.0348
  30573 WAT       -33.6820  -70.1660   -6.5830 O         1 <0>         0.0484
  30574 WAT       -33.6820  -70.1660   -6.3330 O         1 <0>         0.0485
  30575 WAT       -33.6820  -70.1660   -6.0830 O         1 <0>         0.0324
  30576 WAT       -33.6820  -70.1660   -5.8330 O         1 <0>         0.0132
  30577 WAT       -33.6820  -70.1660   -5.5830 O         1 <0>         0.0028
  30578 WAT       -33.6820  -70.1660   -5.3330 O         1 <0>         0.0002
  30579 WAT       -33.6820  -70.1660   -5.0830 O         1 <0>         0.0000
  30580 WAT       -33.6820  -70.1660   -4.8330 O         1 <0>         0.0000
  30581 WAT       -33.6820  -70.1660   -4.5830 O         1 <0>         0.0000
  30582 WAT       -33.6820  -70.1660   -4.3330 O         1 <0>         0.0000
  30583 WAT       -33.6820  -70.1660   -4.0830 O         1 <0>         0.0000
  30584 WAT       -33.6820  -70.1660   -3.8330 O         1 <0>         0.0000
  30585 WAT       -33.6820  -70.1660   -3.5830 O         1 <0>         0.0000
  30586 WAT       -33.6820  -70.1660   -3.3330 O         1 <0>         0.0000
  30587 WAT       -33.6820  -70.1660   -3.0830 O         1 <0>         0.0000
  30588 WAT       -33.6820  -70.1660   -2.8330 O         1 <0>         0.0000
  30589 WAT       -33.6820  -70.1660   -2.5830 O         1 <0>         0.0000
  30590 WAT       -33.6820  -70.1660   -2.3330 O         1 <0>         0.0000
  30591 WAT       -33.6820  -70.1660   -2.0830 O         1 <0>         0.0000
  30592 WAT       -33.6820  -70.1660   -1.8330 O         1 <0>         0.0000
  30593 WAT       -33.6820  -70.1660   -1.5830 O         1 <0>         0.0000
  30594 WAT       -33.6820  -70.1660   -1.3330 O         1 <0>         0.0000
  30595 WAT       -33.6820  -70.1660   -1.0830 O         1 <0>         0.0000
  30596 WAT       -33.6820  -70.1660   -0.8330 O         1 <0>         0.0000
  30597 WAT       -33.6820  -70.1660   -0.5830 O         1 <0>         0.0000
  30598 WAT       -33.6820  -70.1660   -0.3330 O         1 <0>         0.0000
  30599 WAT       -33.6820  -70.1660   -0.0830 O         1 <0>         0.0000
  30600 WAT       -33.6820  -69.9160   -9.8330 O         1 <0>         0.0000
  30601 WAT       -33.6820  -69.9160   -9.5830 O         1 <0>         0.0000
  30602 WAT       -33.6820  -69.9160   -9.3330 O         1 <0>         0.0000
  30603 WAT       -33.6820  -69.9160   -9.0830 O         1 <0>         0.0000
  30604 WAT       -33.6820  -69.9160   -8.8330 O         1 <0>         0.0000
  30605 WAT       -33.6820  -69.9160   -8.5830 O         1 <0>         0.0000
  30606 WAT       -33.6820  -69.9160   -8.3330 O         1 <0>         0.0000
  30607 WAT       -33.6820  -69.9160   -8.0830 O         1 <0>         0.0001
  30608 WAT       -33.6820  -69.9160   -7.8330 O         1 <0>         0.0006
  30609 WAT       -33.6820  -69.9160   -7.5830 O         1 <0>         0.0021
  30610 WAT       -33.6820  -69.9160   -7.3330 O         1 <0>         0.0052
  30611 WAT       -33.6820  -69.9160   -7.0830 O         1 <0>         0.0114
  30612 WAT       -33.6820  -69.9160   -6.8330 O         1 <0>         0.0212
  30613 WAT       -33.6820  -69.9160   -6.5830 O         1 <0>         0.0305
  30614 WAT       -33.6820  -69.9160   -6.3330 O         1 <0>         0.0309
  30615 WAT       -33.6820  -69.9160   -6.0830 O         1 <0>         0.0204
  30616 WAT       -33.6820  -69.9160   -5.8330 O         1 <0>         0.0081
  30617 WAT       -33.6820  -69.9160   -5.5830 O         1 <0>         0.0016
  30618 WAT       -33.6820  -69.9160   -5.3330 O         1 <0>         0.0001
  30619 WAT       -33.6820  -69.9160   -5.0830 O         1 <0>         0.0000
  30620 WAT       -33.6820  -69.9160   -4.8330 O         1 <0>         0.0000
  30621 WAT       -33.6820  -69.9160   -4.5830 O         1 <0>         0.0000
  30622 WAT       -33.6820  -69.9160   -4.3330 O         1 <0>         0.0000
  30623 WAT       -33.6820  -69.9160   -4.0830 O         1 <0>         0.0000
  30624 WAT       -33.6820  -69.9160   -3.8330 O         1 <0>         0.0000
  30625 WAT       -33.6820  -69.9160   -3.5830 O         1 <0>         0.0000
  30626 WAT       -33.6820  -69.9160   -3.3330 O         1 <0>         0.0000
  30627 WAT       -33.6820  -69.9160   -3.0830 O         1 <0>         0.0000
  30628 WAT       -33.6820  -69.9160   -2.8330 O         1 <0>         0.0000
  30629 WAT       -33.6820  -69.9160   -2.5830 O         1 <0>         0.0000
  30630 WAT       -33.6820  -69.9160   -2.3330 O         1 <0>         0.0000
  30631 WAT       -33.6820  -69.9160   -2.0830 O         1 <0>         0.0000
  30632 WAT       -33.6820  -69.9160   -1.8330 O         1 <0>         0.0000
  30633 WAT       -33.6820  -69.9160   -1.5830 O         1 <0>         0.0000
  30634 WAT       -33.6820  -69.9160   -1.3330 O         1 <0>         0.0000
  30635 WAT       -33.6820  -69.9160   -1.0830 O         1 <0>         0.0000
  30636 WAT       -33.6820  -69.9160   -0.8330 O         1 <0>         0.0000
  30637 WAT       -33.6820  -69.9160   -0.5830 O         1 <0>         0.0000
  30638 WAT       -33.6820  -69.9160   -0.3330 O         1 <0>         0.0000
  30639 WAT       -33.6820  -69.9160   -0.0830 O         1 <0>         0.0000
  30640 WAT       -33.6820  -69.6660   -9.8330 O         1 <0>         0.0000
  30641 WAT       -33.6820  -69.6660   -9.5830 O         1 <0>         0.0000
  30642 WAT       -33.6820  -69.6660   -9.3330 O         1 <0>         0.0000
  30643 WAT       -33.6820  -69.6660   -9.0830 O         1 <0>         0.0000
  30644 WAT       -33.6820  -69.6660   -8.8330 O         1 <0>         0.0000
  30645 WAT       -33.6820  -69.6660   -8.5830 O         1 <0>         0.0000
  30646 WAT       -33.6820  -69.6660   -8.3330 O         1 <0>         0.0000
  30647 WAT       -33.6820  -69.6660   -8.0830 O         1 <0>         0.0000
  30648 WAT       -33.6820  -69.6660   -7.8330 O         1 <0>         0.0002
  30649 WAT       -33.6820  -69.6660   -7.5830 O         1 <0>         0.0007
  30650 WAT       -33.6820  -69.6660   -7.3330 O         1 <0>         0.0018
  30651 WAT       -33.6820  -69.6660   -7.0830 O         1 <0>         0.0042
  30652 WAT       -33.6820  -69.6660   -6.8330 O         1 <0>         0.0084
  30653 WAT       -33.6820  -69.6660   -6.5830 O         1 <0>         0.0127
  30654 WAT       -33.6820  -69.6660   -6.3330 O         1 <0>         0.0129
  30655 WAT       -33.6820  -69.6660   -6.0830 O         1 <0>         0.0083
  30656 WAT       -33.6820  -69.6660   -5.8330 O         1 <0>         0.0031
  30657 WAT       -33.6820  -69.6660   -5.5830 O         1 <0>         0.0005
  30658 WAT       -33.6820  -69.6660   -5.3330 O         1 <0>         0.0000
  30659 WAT       -33.6820  -69.6660   -5.0830 O         1 <0>         0.0000
  30660 WAT       -33.6820  -69.6660   -4.8330 O         1 <0>         0.0000
  30661 WAT       -33.6820  -69.6660   -4.5830 O         1 <0>         0.0000
  30662 WAT       -33.6820  -69.6660   -4.3330 O         1 <0>         0.0000
  30663 WAT       -33.6820  -69.6660   -4.0830 O         1 <0>         0.0000
  30664 WAT       -33.6820  -69.6660   -3.8330 O         1 <0>         0.0000
  30665 WAT       -33.6820  -69.6660   -3.5830 O         1 <0>         0.0000
  30666 WAT       -33.6820  -69.6660   -3.3330 O         1 <0>         0.0000
  30667 WAT       -33.6820  -69.6660   -3.0830 O         1 <0>         0.0000
  30668 WAT       -33.6820  -69.6660   -2.8330 O         1 <0>         0.0000
  30669 WAT       -33.6820  -69.6660   -2.5830 O         1 <0>         0.0000
  30670 WAT       -33.6820  -69.6660   -2.3330 O         1 <0>         0.0000
  30671 WAT       -33.6820  -69.6660   -2.0830 O         1 <0>         0.0000
  30672 WAT       -33.6820  -69.6660   -1.8330 O         1 <0>         0.0000
  30673 WAT       -33.6820  -69.6660   -1.5830 O         1 <0>         0.0000
  30674 WAT       -33.6820  -69.6660   -1.3330 O         1 <0>         0.0000
  30675 WAT       -33.6820  -69.6660   -1.0830 O         1 <0>         0.0000
  30676 WAT       -33.6820  -69.6660   -0.8330 O         1 <0>         0.0000
  30677 WAT       -33.6820  -69.6660   -0.5830 O         1 <0>         0.0000
  30678 WAT       -33.6820  -69.6660   -0.3330 O         1 <0>         0.0000
  30679 WAT       -33.6820  -69.6660   -0.0830 O         1 <0>         0.0000
  30680 WAT       -33.6820  -69.4160   -9.8330 O         1 <0>         0.0000
  30681 WAT       -33.6820  -69.4160   -9.5830 O         1 <0>         0.0000
  30682 WAT       -33.6820  -69.4160   -9.3330 O         1 <0>         0.0000
  30683 WAT       -33.6820  -69.4160   -9.0830 O         1 <0>         0.0000
  30684 WAT       -33.6820  -69.4160   -8.8330 O         1 <0>         0.0000
  30685 WAT       -33.6820  -69.4160   -8.5830 O         1 <0>         0.0000
  30686 WAT       -33.6820  -69.4160   -8.3330 O         1 <0>         0.0000
  30687 WAT       -33.6820  -69.4160   -8.0830 O         1 <0>         0.0000
  30688 WAT       -33.6820  -69.4160   -7.8330 O         1 <0>         0.0000
  30689 WAT       -33.6820  -69.4160   -7.5830 O         1 <0>         0.0001
  30690 WAT       -33.6820  -69.4160   -7.3330 O         1 <0>         0.0004
  30691 WAT       -33.6820  -69.4160   -7.0830 O         1 <0>         0.0009
  30692 WAT       -33.6820  -69.4160   -6.8330 O         1 <0>         0.0020
  30693 WAT       -33.6820  -69.4160   -6.5830 O         1 <0>         0.0031
  30694 WAT       -33.6820  -69.4160   -6.3330 O         1 <0>         0.0032
  30695 WAT       -33.6820  -69.4160   -6.0830 O         1 <0>         0.0020
  30696 WAT       -33.6820  -69.4160   -5.8330 O         1 <0>         0.0007
  30697 WAT       -33.6820  -69.4160   -5.5830 O         1 <0>         0.0001
  30698 WAT       -33.6820  -69.4160   -5.3330 O         1 <0>         0.0000
  30699 WAT       -33.6820  -69.4160   -5.0830 O         1 <0>         0.0000
  30700 WAT       -33.6820  -69.4160   -4.8330 O         1 <0>         0.0000
  30701 WAT       -33.6820  -69.4160   -4.5830 O         1 <0>         0.0000
  30702 WAT       -33.6820  -69.4160   -4.3330 O         1 <0>         0.0000
  30703 WAT       -33.6820  -69.4160   -4.0830 O         1 <0>         0.0000
  30704 WAT       -33.6820  -69.4160   -3.8330 O         1 <0>         0.0000
  30705 WAT       -33.6820  -69.4160   -3.5830 O         1 <0>         0.0000
  30706 WAT       -33.6820  -69.4160   -3.3330 O         1 <0>         0.0000
  30707 WAT       -33.6820  -69.4160   -3.0830 O         1 <0>         0.0000
  30708 WAT       -33.6820  -69.4160   -2.8330 O         1 <0>         0.0000
  30709 WAT       -33.6820  -69.4160   -2.5830 O         1 <0>         0.0000
  30710 WAT       -33.6820  -69.4160   -2.3330 O         1 <0>         0.0000
  30711 WAT       -33.6820  -69.4160   -2.0830 O         1 <0>         0.0000
  30712 WAT       -33.6820  -69.4160   -1.8330 O         1 <0>         0.0000
  30713 WAT       -33.6820  -69.4160   -1.5830 O         1 <0>         0.0000
  30714 WAT       -33.6820  -69.4160   -1.3330 O         1 <0>         0.0000
  30715 WAT       -33.6820  -69.4160   -1.0830 O         1 <0>         0.0000
  30716 WAT       -33.6820  -69.4160   -0.8330 O         1 <0>         0.0000
  30717 WAT       -33.6820  -69.4160   -0.5830 O         1 <0>         0.0000
  30718 WAT       -33.6820  -69.4160   -0.3330 O         1 <0>         0.0000
  30719 WAT       -33.6820  -69.4160   -0.0830 O         1 <0>         0.0000
  30720 WAT       -33.6820  -69.1660   -9.8330 O         1 <0>         0.0000
  30721 WAT       -33.6820  -69.1660   -9.5830 O         1 <0>         0.0000
  30722 WAT       -33.6820  -69.1660   -9.3330 O         1 <0>         0.0000
  30723 WAT       -33.6820  -69.1660   -9.0830 O         1 <0>         0.0000
  30724 WAT       -33.6820  -69.1660   -8.8330 O         1 <0>         0.0000
  30725 WAT       -33.6820  -69.1660   -8.5830 O         1 <0>         0.0000
  30726 WAT       -33.6820  -69.1660   -8.3330 O         1 <0>         0.0000
  30727 WAT       -33.6820  -69.1660   -8.0830 O         1 <0>         0.0000
  30728 WAT       -33.6820  -69.1660   -7.8330 O         1 <0>         0.0000
  30729 WAT       -33.6820  -69.1660   -7.5830 O         1 <0>         0.0000
  30730 WAT       -33.6820  -69.1660   -7.3330 O         1 <0>         0.0000
  30731 WAT       -33.6820  -69.1660   -7.0830 O         1 <0>         0.0001
  30732 WAT       -33.6820  -69.1660   -6.8330 O         1 <0>         0.0002
  30733 WAT       -33.6820  -69.1660   -6.5830 O         1 <0>         0.0004
  30734 WAT       -33.6820  -69.1660   -6.3330 O         1 <0>         0.0004
  30735 WAT       -33.6820  -69.1660   -6.0830 O         1 <0>         0.0002
  30736 WAT       -33.6820  -69.1660   -5.8330 O         1 <0>         0.0001
  30737 WAT       -33.6820  -69.1660   -5.5830 O         1 <0>         0.0000
  30738 WAT       -33.6820  -69.1660   -5.3330 O         1 <0>         0.0000
  30739 WAT       -33.6820  -69.1660   -5.0830 O         1 <0>         0.0000
  30740 WAT       -33.6820  -69.1660   -4.8330 O         1 <0>         0.0000
  30741 WAT       -33.6820  -69.1660   -4.5830 O         1 <0>         0.0000
  30742 WAT       -33.6820  -69.1660   -4.3330 O         1 <0>         0.0000
  30743 WAT       -33.6820  -69.1660   -4.0830 O         1 <0>         0.0000
  30744 WAT       -33.6820  -69.1660   -3.8330 O         1 <0>         0.0000
  30745 WAT       -33.6820  -69.1660   -3.5830 O         1 <0>         0.0000
  30746 WAT       -33.6820  -69.1660   -3.3330 O         1 <0>         0.0000
  30747 WAT       -33.6820  -69.1660   -3.0830 O         1 <0>         0.0000
  30748 WAT       -33.6820  -69.1660   -2.8330 O         1 <0>         0.0000
  30749 WAT       -33.6820  -69.1660   -2.5830 O         1 <0>         0.0000
  30750 WAT       -33.6820  -69.1660   -2.3330 O         1 <0>         0.0000
  30751 WAT       -33.6820  -69.1660   -2.0830 O         1 <0>         0.0000
  30752 WAT       -33.6820  -69.1660   -1.8330 O         1 <0>         0.0000
  30753 WAT       -33.6820  -69.1660   -1.5830 O         1 <0>         0.0000
  30754 WAT       -33.6820  -69.1660   -1.3330 O         1 <0>         0.0000
  30755 WAT       -33.6820  -69.1660   -1.0830 O         1 <0>         0.0000
  30756 WAT       -33.6820  -69.1660   -0.8330 O         1 <0>         0.0000
  30757 WAT       -33.6820  -69.1660   -0.5830 O         1 <0>         0.0000
  30758 WAT       -33.6820  -69.1660   -0.3330 O         1 <0>         0.0000
  30759 WAT       -33.6820  -69.1660   -0.0830 O         1 <0>         0.0000
  30760 WAT       -33.6820  -68.9160   -9.8330 O         1 <0>         0.0000
  30761 WAT       -33.6820  -68.9160   -9.5830 O         1 <0>         0.0000
  30762 WAT       -33.6820  -68.9160   -9.3330 O         1 <0>         0.0000
  30763 WAT       -33.6820  -68.9160   -9.0830 O         1 <0>         0.0000
  30764 WAT       -33.6820  -68.9160   -8.8330 O         1 <0>         0.0000
  30765 WAT       -33.6820  -68.9160   -8.5830 O         1 <0>         0.0000
  30766 WAT       -33.6820  -68.9160   -8.3330 O         1 <0>         0.0000
  30767 WAT       -33.6820  -68.9160   -8.0830 O         1 <0>         0.0000
  30768 WAT       -33.6820  -68.9160   -7.8330 O         1 <0>         0.0000
  30769 WAT       -33.6820  -68.9160   -7.5830 O         1 <0>         0.0000
  30770 WAT       -33.6820  -68.9160   -7.3330 O         1 <0>         0.0000
  30771 WAT       -33.6820  -68.9160   -7.0830 O         1 <0>         0.0000
  30772 WAT       -33.6820  -68.9160   -6.8330 O         1 <0>         0.0000
  30773 WAT       -33.6820  -68.9160   -6.5830 O         1 <0>         0.0000
  30774 WAT       -33.6820  -68.9160   -6.3330 O         1 <0>         0.0000
  30775 WAT       -33.6820  -68.9160   -6.0830 O         1 <0>         0.0000
  30776 WAT       -33.6820  -68.9160   -5.8330 O         1 <0>         0.0000
  30777 WAT       -33.6820  -68.9160   -5.5830 O         1 <0>         0.0000
  30778 WAT       -33.6820  -68.9160   -5.3330 O         1 <0>         0.0000
  30779 WAT       -33.6820  -68.9160   -5.0830 O         1 <0>         0.0000
  30780 WAT       -33.6820  -68.9160   -4.8330 O         1 <0>         0.0000
  30781 WAT       -33.6820  -68.9160   -4.5830 O         1 <0>         0.0000
  30782 WAT       -33.6820  -68.9160   -4.3330 O         1 <0>         0.0000
  30783 WAT       -33.6820  -68.9160   -4.0830 O         1 <0>         0.0000
  30784 WAT       -33.6820  -68.9160   -3.8330 O         1 <0>         0.0000
  30785 WAT       -33.6820  -68.9160   -3.5830 O         1 <0>         0.0000
  30786 WAT       -33.6820  -68.9160   -3.3330 O         1 <0>         0.0000
  30787 WAT       -33.6820  -68.9160   -3.0830 O         1 <0>         0.0000
  30788 WAT       -33.6820  -68.9160   -2.8330 O         1 <0>         0.0000
  30789 WAT       -33.6820  -68.9160   -2.5830 O         1 <0>         0.0000
  30790 WAT       -33.6820  -68.9160   -2.3330 O         1 <0>         0.0000
  30791 WAT       -33.6820  -68.9160   -2.0830 O         1 <0>         0.0000
  30792 WAT       -33.6820  -68.9160   -1.8330 O         1 <0>         0.0000
  30793 WAT       -33.6820  -68.9160   -1.5830 O         1 <0>         0.0000
  30794 WAT       -33.6820  -68.9160   -1.3330 O         1 <0>         0.0000
  30795 WAT       -33.6820  -68.9160   -1.0830 O         1 <0>         0.0000
  30796 WAT       -33.6820  -68.9160   -0.8330 O         1 <0>         0.0000
  30797 WAT       -33.6820  -68.9160   -0.5830 O         1 <0>         0.0000
  30798 WAT       -33.6820  -68.9160   -0.3330 O         1 <0>         0.0000
  30799 WAT       -33.6820  -68.9160   -0.0830 O         1 <0>         0.0000
  30800 WAT       -33.4320  -77.4160   -9.8330 O         1 <0>         0.0000
  30801 WAT       -33.4320  -77.4160   -9.5830 O         1 <0>         0.0000
  30802 WAT       -33.4320  -77.4160   -9.3330 O         1 <0>         0.0000
  30803 WAT       -33.4320  -77.4160   -9.0830 O         1 <0>         0.0000
  30804 WAT       -33.4320  -77.4160   -8.8330 O         1 <0>         0.0000
  30805 WAT       -33.4320  -77.4160   -8.5830 O         1 <0>         0.0000
  30806 WAT       -33.4320  -77.4160   -8.3330 O         1 <0>         0.0000
  30807 WAT       -33.4320  -77.4160   -8.0830 O         1 <0>         0.0000
  30808 WAT       -33.4320  -77.4160   -7.8330 O         1 <0>         0.0000
  30809 WAT       -33.4320  -77.4160   -7.5830 O         1 <0>         0.0000
  30810 WAT       -33.4320  -77.4160   -7.3330 O         1 <0>         0.0000
  30811 WAT       -33.4320  -77.4160   -7.0830 O         1 <0>         0.0000
  30812 WAT       -33.4320  -77.4160   -6.8330 O         1 <0>         0.0000
  30813 WAT       -33.4320  -77.4160   -6.5830 O         1 <0>         0.0000
  30814 WAT       -33.4320  -77.4160   -6.3330 O         1 <0>         0.0000
  30815 WAT       -33.4320  -77.4160   -6.0830 O         1 <0>         0.0000
  30816 WAT       -33.4320  -77.4160   -5.8330 O         1 <0>         0.0000
  30817 WAT       -33.4320  -77.4160   -5.5830 O         1 <0>         0.0000
  30818 WAT       -33.4320  -77.4160   -5.3330 O         1 <0>         0.0000
  30819 WAT       -33.4320  -77.4160   -5.0830 O         1 <0>         0.0000
  30820 WAT       -33.4320  -77.4160   -4.8330 O         1 <0>         0.0000
  30821 WAT       -33.4320  -77.4160   -4.5830 O         1 <0>         0.0000
  30822 WAT       -33.4320  -77.4160   -4.3330 O         1 <0>         0.0000
  30823 WAT       -33.4320  -77.4160   -4.0830 O         1 <0>         0.0000
  30824 WAT       -33.4320  -77.4160   -3.8330 O         1 <0>         0.0000
  30825 WAT       -33.4320  -77.4160   -3.5830 O         1 <0>         0.0000
  30826 WAT       -33.4320  -77.4160   -3.3330 O         1 <0>         0.0000
  30827 WAT       -33.4320  -77.4160   -3.0830 O         1 <0>         0.0000
  30828 WAT       -33.4320  -77.4160   -2.8330 O         1 <0>         0.0000
  30829 WAT       -33.4320  -77.4160   -2.5830 O         1 <0>         0.0000
  30830 WAT       -33.4320  -77.4160   -2.3330 O         1 <0>         0.0000
  30831 WAT       -33.4320  -77.4160   -2.0830 O         1 <0>         0.0000
  30832 WAT       -33.4320  -77.4160   -1.8330 O         1 <0>         0.0000
  30833 WAT       -33.4320  -77.4160   -1.5830 O         1 <0>         0.0000
  30834 WAT       -33.4320  -77.4160   -1.3330 O         1 <0>         0.0000
  30835 WAT       -33.4320  -77.4160   -1.0830 O         1 <0>         0.0000
  30836 WAT       -33.4320  -77.4160   -0.8330 O         1 <0>         0.0000
  30837 WAT       -33.4320  -77.4160   -0.5830 O         1 <0>         0.0000
  30838 WAT       -33.4320  -77.4160   -0.3330 O         1 <0>         0.0000
  30839 WAT       -33.4320  -77.4160   -0.0830 O         1 <0>         0.0000
  30840 WAT       -33.4320  -77.1660   -9.8330 O         1 <0>         0.0000
  30841 WAT       -33.4320  -77.1660   -9.5830 O         1 <0>         0.0000
  30842 WAT       -33.4320  -77.1660   -9.3330 O         1 <0>         0.0000
  30843 WAT       -33.4320  -77.1660   -9.0830 O         1 <0>         0.0000
  30844 WAT       -33.4320  -77.1660   -8.8330 O         1 <0>         0.0000
  30845 WAT       -33.4320  -77.1660   -8.5830 O         1 <0>         0.0000
  30846 WAT       -33.4320  -77.1660   -8.3330 O         1 <0>         0.0000
  30847 WAT       -33.4320  -77.1660   -8.0830 O         1 <0>         0.0000
  30848 WAT       -33.4320  -77.1660   -7.8330 O         1 <0>         0.0000
  30849 WAT       -33.4320  -77.1660   -7.5830 O         1 <0>         0.0000
  30850 WAT       -33.4320  -77.1660   -7.3330 O         1 <0>         0.0000
  30851 WAT       -33.4320  -77.1660   -7.0830 O         1 <0>         0.0000
  30852 WAT       -33.4320  -77.1660   -6.8330 O         1 <0>         0.0000
  30853 WAT       -33.4320  -77.1660   -6.5830 O         1 <0>         0.0000
  30854 WAT       -33.4320  -77.1660   -6.3330 O         1 <0>         0.0000
  30855 WAT       -33.4320  -77.1660   -6.0830 O         1 <0>         0.0000
  30856 WAT       -33.4320  -77.1660   -5.8330 O         1 <0>         0.0000
  30857 WAT       -33.4320  -77.1660   -5.5830 O         1 <0>         0.0000
  30858 WAT       -33.4320  -77.1660   -5.3330 O         1 <0>         0.0000
  30859 WAT       -33.4320  -77.1660   -5.0830 O         1 <0>         0.0000
  30860 WAT       -33.4320  -77.1660   -4.8330 O         1 <0>         0.0000
  30861 WAT       -33.4320  -77.1660   -4.5830 O         1 <0>         0.0000
  30862 WAT       -33.4320  -77.1660   -4.3330 O         1 <0>         0.0000
  30863 WAT       -33.4320  -77.1660   -4.0830 O         1 <0>         0.0000
  30864 WAT       -33.4320  -77.1660   -3.8330 O         1 <0>         0.0000
  30865 WAT       -33.4320  -77.1660   -3.5830 O         1 <0>         0.0000
  30866 WAT       -33.4320  -77.1660   -3.3330 O         1 <0>         0.0000
  30867 WAT       -33.4320  -77.1660   -3.0830 O         1 <0>         0.0000
  30868 WAT       -33.4320  -77.1660   -2.8330 O         1 <0>         0.0000
  30869 WAT       -33.4320  -77.1660   -2.5830 O         1 <0>         0.0000
  30870 WAT       -33.4320  -77.1660   -2.3330 O         1 <0>         0.0000
  30871 WAT       -33.4320  -77.1660   -2.0830 O         1 <0>         0.0000
  30872 WAT       -33.4320  -77.1660   -1.8330 O         1 <0>         0.0000
  30873 WAT       -33.4320  -77.1660   -1.5830 O         1 <0>         0.0000
  30874 WAT       -33.4320  -77.1660   -1.3330 O         1 <0>         0.0000
  30875 WAT       -33.4320  -77.1660   -1.0830 O         1 <0>         0.0000
  30876 WAT       -33.4320  -77.1660   -0.8330 O         1 <0>         0.0000
  30877 WAT       -33.4320  -77.1660   -0.5830 O         1 <0>         0.0000
  30878 WAT       -33.4320  -77.1660   -0.3330 O         1 <0>         0.0000
  30879 WAT       -33.4320  -77.1660   -0.0830 O         1 <0>         0.0000
  30880 WAT       -33.4320  -76.9160   -9.8330 O         1 <0>         0.0000
  30881 WAT       -33.4320  -76.9160   -9.5830 O         1 <0>         0.0000
  30882 WAT       -33.4320  -76.9160   -9.3330 O         1 <0>         0.0000
  30883 WAT       -33.4320  -76.9160   -9.0830 O         1 <0>         0.0000
  30884 WAT       -33.4320  -76.9160   -8.8330 O         1 <0>         0.0000
  30885 WAT       -33.4320  -76.9160   -8.5830 O         1 <0>         0.0000
  30886 WAT       -33.4320  -76.9160   -8.3330 O         1 <0>         0.0000
  30887 WAT       -33.4320  -76.9160   -8.0830 O         1 <0>         0.0000
  30888 WAT       -33.4320  -76.9160   -7.8330 O         1 <0>         0.0000
  30889 WAT       -33.4320  -76.9160   -7.5830 O         1 <0>         0.0000
  30890 WAT       -33.4320  -76.9160   -7.3330 O         1 <0>         0.0000
  30891 WAT       -33.4320  -76.9160   -7.0830 O         1 <0>         0.0000
  30892 WAT       -33.4320  -76.9160   -6.8330 O         1 <0>         0.0000
  30893 WAT       -33.4320  -76.9160   -6.5830 O         1 <0>         0.0000
  30894 WAT       -33.4320  -76.9160   -6.3330 O         1 <0>         0.0000
  30895 WAT       -33.4320  -76.9160   -6.0830 O         1 <0>         0.0000
  30896 WAT       -33.4320  -76.9160   -5.8330 O         1 <0>         0.0000
  30897 WAT       -33.4320  -76.9160   -5.5830 O         1 <0>         0.0000
  30898 WAT       -33.4320  -76.9160   -5.3330 O         1 <0>         0.0000
  30899 WAT       -33.4320  -76.9160   -5.0830 O         1 <0>         0.0000
  30900 WAT       -33.4320  -76.9160   -4.8330 O         1 <0>         0.0000
  30901 WAT       -33.4320  -76.9160   -4.5830 O         1 <0>         0.0000
  30902 WAT       -33.4320  -76.9160   -4.3330 O         1 <0>         0.0000
  30903 WAT       -33.4320  -76.9160   -4.0830 O         1 <0>         0.0000
  30904 WAT       -33.4320  -76.9160   -3.8330 O         1 <0>         0.0000
  30905 WAT       -33.4320  -76.9160   -3.5830 O         1 <0>         0.0000
  30906 WAT       -33.4320  -76.9160   -3.3330 O         1 <0>         0.0000
  30907 WAT       -33.4320  -76.9160   -3.0830 O         1 <0>         0.0000
  30908 WAT       -33.4320  -76.9160   -2.8330 O         1 <0>         0.0000
  30909 WAT       -33.4320  -76.9160   -2.5830 O         1 <0>         0.0000
  30910 WAT       -33.4320  -76.9160   -2.3330 O         1 <0>         0.0000
  30911 WAT       -33.4320  -76.9160   -2.0830 O         1 <0>         0.0000
  30912 WAT       -33.4320  -76.9160   -1.8330 O         1 <0>         0.0000
  30913 WAT       -33.4320  -76.9160   -1.5830 O         1 <0>         0.0000
  30914 WAT       -33.4320  -76.9160   -1.3330 O         1 <0>         0.0000
  30915 WAT       -33.4320  -76.9160   -1.0830 O         1 <0>         0.0000
  30916 WAT       -33.4320  -76.9160   -0.8330 O         1 <0>         0.0000
  30917 WAT       -33.4320  -76.9160   -0.5830 O         1 <0>         0.0000
  30918 WAT       -33.4320  -76.9160   -0.3330 O         1 <0>         0.0000
  30919 WAT       -33.4320  -76.9160   -0.0830 O         1 <0>         0.0000
  30920 WAT       -33.4320  -76.6660   -9.8330 O         1 <0>         0.0000
  30921 WAT       -33.4320  -76.6660   -9.5830 O         1 <0>         0.0000
  30922 WAT       -33.4320  -76.6660   -9.3330 O         1 <0>         0.0000
  30923 WAT       -33.4320  -76.6660   -9.0830 O         1 <0>         0.0000
  30924 WAT       -33.4320  -76.6660   -8.8330 O         1 <0>         0.0000
  30925 WAT       -33.4320  -76.6660   -8.5830 O         1 <0>         0.0000
  30926 WAT       -33.4320  -76.6660   -8.3330 O         1 <0>         0.0000
  30927 WAT       -33.4320  -76.6660   -8.0830 O         1 <0>         0.0000
  30928 WAT       -33.4320  -76.6660   -7.8330 O         1 <0>         0.0000
  30929 WAT       -33.4320  -76.6660   -7.5830 O         1 <0>         0.0000
  30930 WAT       -33.4320  -76.6660   -7.3330 O         1 <0>         0.0000
  30931 WAT       -33.4320  -76.6660   -7.0830 O         1 <0>         0.0000
  30932 WAT       -33.4320  -76.6660   -6.8330 O         1 <0>         0.0000
  30933 WAT       -33.4320  -76.6660   -6.5830 O         1 <0>         0.0000
  30934 WAT       -33.4320  -76.6660   -6.3330 O         1 <0>         0.0000
  30935 WAT       -33.4320  -76.6660   -6.0830 O         1 <0>         0.0000
  30936 WAT       -33.4320  -76.6660   -5.8330 O         1 <0>         0.0000
  30937 WAT       -33.4320  -76.6660   -5.5830 O         1 <0>         0.0000
  30938 WAT       -33.4320  -76.6660   -5.3330 O         1 <0>         0.0000
  30939 WAT       -33.4320  -76.6660   -5.0830 O         1 <0>         0.0000
  30940 WAT       -33.4320  -76.6660   -4.8330 O         1 <0>         0.0000
  30941 WAT       -33.4320  -76.6660   -4.5830 O         1 <0>         0.0000
  30942 WAT       -33.4320  -76.6660   -4.3330 O         1 <0>         0.0000
  30943 WAT       -33.4320  -76.6660   -4.0830 O         1 <0>         0.0000
  30944 WAT       -33.4320  -76.6660   -3.8330 O         1 <0>         0.0000
  30945 WAT       -33.4320  -76.6660   -3.5830 O         1 <0>         0.0000
  30946 WAT       -33.4320  -76.6660   -3.3330 O         1 <0>         0.0000
  30947 WAT       -33.4320  -76.6660   -3.0830 O         1 <0>         0.0000
  30948 WAT       -33.4320  -76.6660   -2.8330 O         1 <0>         0.0000
  30949 WAT       -33.4320  -76.6660   -2.5830 O         1 <0>         0.0000
  30950 WAT       -33.4320  -76.6660   -2.3330 O         1 <0>         0.0000
  30951 WAT       -33.4320  -76.6660   -2.0830 O         1 <0>         0.0000
  30952 WAT       -33.4320  -76.6660   -1.8330 O         1 <0>         0.0000
  30953 WAT       -33.4320  -76.6660   -1.5830 O         1 <0>         0.0000
  30954 WAT       -33.4320  -76.6660   -1.3330 O         1 <0>         0.0000
  30955 WAT       -33.4320  -76.6660   -1.0830 O         1 <0>         0.0000
  30956 WAT       -33.4320  -76.6660   -0.8330 O         1 <0>         0.0000
  30957 WAT       -33.4320  -76.6660   -0.5830 O         1 <0>         0.0000
  30958 WAT       -33.4320  -76.6660   -0.3330 O         1 <0>         0.0000
  30959 WAT       -33.4320  -76.6660   -0.0830 O         1 <0>         0.0000
  30960 WAT       -33.4320  -76.4160   -9.8330 O         1 <0>         0.0000
  30961 WAT       -33.4320  -76.4160   -9.5830 O         1 <0>         0.0000
  30962 WAT       -33.4320  -76.4160   -9.3330 O         1 <0>         0.0000
  30963 WAT       -33.4320  -76.4160   -9.0830 O         1 <0>         0.0000
  30964 WAT       -33.4320  -76.4160   -8.8330 O         1 <0>         0.0000
  30965 WAT       -33.4320  -76.4160   -8.5830 O         1 <0>         0.0000
  30966 WAT       -33.4320  -76.4160   -8.3330 O         1 <0>         0.0000
  30967 WAT       -33.4320  -76.4160   -8.0830 O         1 <0>         0.0000
  30968 WAT       -33.4320  -76.4160   -7.8330 O         1 <0>         0.0000
  30969 WAT       -33.4320  -76.4160   -7.5830 O         1 <0>         0.0000
  30970 WAT       -33.4320  -76.4160   -7.3330 O         1 <0>         0.0000
  30971 WAT       -33.4320  -76.4160   -7.0830 O         1 <0>         0.0000
  30972 WAT       -33.4320  -76.4160   -6.8330 O         1 <0>         0.0000
  30973 WAT       -33.4320  -76.4160   -6.5830 O         1 <0>         0.0000
  30974 WAT       -33.4320  -76.4160   -6.3330 O         1 <0>         0.0000
  30975 WAT       -33.4320  -76.4160   -6.0830 O         1 <0>         0.0000
  30976 WAT       -33.4320  -76.4160   -5.8330 O         1 <0>         0.0000
  30977 WAT       -33.4320  -76.4160   -5.5830 O         1 <0>         0.0000
  30978 WAT       -33.4320  -76.4160   -5.3330 O         1 <0>         0.0000
  30979 WAT       -33.4320  -76.4160   -5.0830 O         1 <0>         0.0000
  30980 WAT       -33.4320  -76.4160   -4.8330 O         1 <0>         0.0000
  30981 WAT       -33.4320  -76.4160   -4.5830 O         1 <0>         0.0000
  30982 WAT       -33.4320  -76.4160   -4.3330 O         1 <0>         0.0000
  30983 WAT       -33.4320  -76.4160   -4.0830 O         1 <0>         0.0000
  30984 WAT       -33.4320  -76.4160   -3.8330 O         1 <0>         0.0000
  30985 WAT       -33.4320  -76.4160   -3.5830 O         1 <0>         0.0000
  30986 WAT       -33.4320  -76.4160   -3.3330 O         1 <0>         0.0000
  30987 WAT       -33.4320  -76.4160   -3.0830 O         1 <0>         0.0000
  30988 WAT       -33.4320  -76.4160   -2.8330 O         1 <0>         0.0000
  30989 WAT       -33.4320  -76.4160   -2.5830 O         1 <0>         0.0000
  30990 WAT       -33.4320  -76.4160   -2.3330 O         1 <0>         0.0000
  30991 WAT       -33.4320  -76.4160   -2.0830 O         1 <0>         0.0000
  30992 WAT       -33.4320  -76.4160   -1.8330 O         1 <0>         0.0000
  30993 WAT       -33.4320  -76.4160   -1.5830 O         1 <0>         0.0000
  30994 WAT       -33.4320  -76.4160   -1.3330 O         1 <0>         0.0000
  30995 WAT       -33.4320  -76.4160   -1.0830 O         1 <0>         0.0000
  30996 WAT       -33.4320  -76.4160   -0.8330 O         1 <0>         0.0000
  30997 WAT       -33.4320  -76.4160   -0.5830 O         1 <0>         0.0000
  30998 WAT       -33.4320  -76.4160   -0.3330 O         1 <0>         0.0000
  30999 WAT       -33.4320  -76.4160   -0.0830 O         1 <0>         0.0000
  31000 WAT       -33.4320  -76.1660   -9.8330 O         1 <0>         0.0000
  31001 WAT       -33.4320  -76.1660   -9.5830 O         1 <0>         0.0000
  31002 WAT       -33.4320  -76.1660   -9.3330 O         1 <0>         0.0000
  31003 WAT       -33.4320  -76.1660   -9.0830 O         1 <0>         0.0000
  31004 WAT       -33.4320  -76.1660   -8.8330 O         1 <0>         0.0000
  31005 WAT       -33.4320  -76.1660   -8.5830 O         1 <0>         0.0000
  31006 WAT       -33.4320  -76.1660   -8.3330 O         1 <0>         0.0000
  31007 WAT       -33.4320  -76.1660   -8.0830 O         1 <0>         0.0000
  31008 WAT       -33.4320  -76.1660   -7.8330 O         1 <0>         0.0000
  31009 WAT       -33.4320  -76.1660   -7.5830 O         1 <0>         0.0000
  31010 WAT       -33.4320  -76.1660   -7.3330 O         1 <0>         0.0000
  31011 WAT       -33.4320  -76.1660   -7.0830 O         1 <0>         0.0000
  31012 WAT       -33.4320  -76.1660   -6.8330 O         1 <0>         0.0000
  31013 WAT       -33.4320  -76.1660   -6.5830 O         1 <0>         0.0000
  31014 WAT       -33.4320  -76.1660   -6.3330 O         1 <0>         0.0000
  31015 WAT       -33.4320  -76.1660   -6.0830 O         1 <0>         0.0000
  31016 WAT       -33.4320  -76.1660   -5.8330 O         1 <0>         0.0000
  31017 WAT       -33.4320  -76.1660   -5.5830 O         1 <0>         0.0000
  31018 WAT       -33.4320  -76.1660   -5.3330 O         1 <0>         0.0000
  31019 WAT       -33.4320  -76.1660   -5.0830 O         1 <0>         0.0000
  31020 WAT       -33.4320  -76.1660   -4.8330 O         1 <0>         0.0000
  31021 WAT       -33.4320  -76.1660   -4.5830 O         1 <0>         0.0000
  31022 WAT       -33.4320  -76.1660   -4.3330 O         1 <0>         0.0000
  31023 WAT       -33.4320  -76.1660   -4.0830 O         1 <0>         0.0000
  31024 WAT       -33.4320  -76.1660   -3.8330 O         1 <0>         0.0000
  31025 WAT       -33.4320  -76.1660   -3.5830 O         1 <0>         0.0000
  31026 WAT       -33.4320  -76.1660   -3.3330 O         1 <0>         0.0000
  31027 WAT       -33.4320  -76.1660   -3.0830 O         1 <0>         0.0000
  31028 WAT       -33.4320  -76.1660   -2.8330 O         1 <0>         0.0000
  31029 WAT       -33.4320  -76.1660   -2.5830 O         1 <0>         0.0000
  31030 WAT       -33.4320  -76.1660   -2.3330 O         1 <0>         0.0000
  31031 WAT       -33.4320  -76.1660   -2.0830 O         1 <0>         0.0000
  31032 WAT       -33.4320  -76.1660   -1.8330 O         1 <0>         0.0000
  31033 WAT       -33.4320  -76.1660   -1.5830 O         1 <0>         0.0000
  31034 WAT       -33.4320  -76.1660   -1.3330 O         1 <0>         0.0000
  31035 WAT       -33.4320  -76.1660   -1.0830 O         1 <0>         0.0000
  31036 WAT       -33.4320  -76.1660   -0.8330 O         1 <0>         0.0000
  31037 WAT       -33.4320  -76.1660   -0.5830 O         1 <0>         0.0000
  31038 WAT       -33.4320  -76.1660   -0.3330 O         1 <0>         0.0000
  31039 WAT       -33.4320  -76.1660   -0.0830 O         1 <0>         0.0000
  31040 WAT       -33.4320  -75.9160   -9.8330 O         1 <0>         0.0000
  31041 WAT       -33.4320  -75.9160   -9.5830 O         1 <0>         0.0000
  31042 WAT       -33.4320  -75.9160   -9.3330 O         1 <0>         0.0000
  31043 WAT       -33.4320  -75.9160   -9.0830 O         1 <0>         0.0000
  31044 WAT       -33.4320  -75.9160   -8.8330 O         1 <0>         0.0000
  31045 WAT       -33.4320  -75.9160   -8.5830 O         1 <0>         0.0000
  31046 WAT       -33.4320  -75.9160   -8.3330 O         1 <0>         0.0000
  31047 WAT       -33.4320  -75.9160   -8.0830 O         1 <0>         0.0000
  31048 WAT       -33.4320  -75.9160   -7.8330 O         1 <0>         0.0000
  31049 WAT       -33.4320  -75.9160   -7.5830 O         1 <0>         0.0000
  31050 WAT       -33.4320  -75.9160   -7.3330 O         1 <0>         0.0000
  31051 WAT       -33.4320  -75.9160   -7.0830 O         1 <0>         0.0000
  31052 WAT       -33.4320  -75.9160   -6.8330 O         1 <0>         0.0000
  31053 WAT       -33.4320  -75.9160   -6.5830 O         1 <0>         0.0000
  31054 WAT       -33.4320  -75.9160   -6.3330 O         1 <0>         0.0000
  31055 WAT       -33.4320  -75.9160   -6.0830 O         1 <0>         0.0000
  31056 WAT       -33.4320  -75.9160   -5.8330 O         1 <0>         0.0000
  31057 WAT       -33.4320  -75.9160   -5.5830 O         1 <0>         0.0000
  31058 WAT       -33.4320  -75.9160   -5.3330 O         1 <0>         0.0000
  31059 WAT       -33.4320  -75.9160   -5.0830 O         1 <0>         0.0000
  31060 WAT       -33.4320  -75.9160   -4.8330 O         1 <0>         0.0000
  31061 WAT       -33.4320  -75.9160   -4.5830 O         1 <0>         0.0000
  31062 WAT       -33.4320  -75.9160   -4.3330 O         1 <0>         0.0000
  31063 WAT       -33.4320  -75.9160   -4.0830 O         1 <0>         0.0001
  31064 WAT       -33.4320  -75.9160   -3.8330 O         1 <0>         0.0002
  31065 WAT       -33.4320  -75.9160   -3.5830 O         1 <0>         0.0004
  31066 WAT       -33.4320  -75.9160   -3.3330 O         1 <0>         0.0005
  31067 WAT       -33.4320  -75.9160   -3.0830 O         1 <0>         0.0005
  31068 WAT       -33.4320  -75.9160   -2.8330 O         1 <0>         0.0003
  31069 WAT       -33.4320  -75.9160   -2.5830 O         1 <0>         0.0001
  31070 WAT       -33.4320  -75.9160   -2.3330 O         1 <0>         0.0000
  31071 WAT       -33.4320  -75.9160   -2.0830 O         1 <0>         0.0000
  31072 WAT       -33.4320  -75.9160   -1.8330 O         1 <0>         0.0000
  31073 WAT       -33.4320  -75.9160   -1.5830 O         1 <0>         0.0000
  31074 WAT       -33.4320  -75.9160   -1.3330 O         1 <0>         0.0000
  31075 WAT       -33.4320  -75.9160   -1.0830 O         1 <0>         0.0000
  31076 WAT       -33.4320  -75.9160   -0.8330 O         1 <0>         0.0000
  31077 WAT       -33.4320  -75.9160   -0.5830 O         1 <0>         0.0000
  31078 WAT       -33.4320  -75.9160   -0.3330 O         1 <0>         0.0000
  31079 WAT       -33.4320  -75.9160   -0.0830 O         1 <0>         0.0000
  31080 WAT       -33.4320  -75.6660   -9.8330 O         1 <0>         0.0000
  31081 WAT       -33.4320  -75.6660   -9.5830 O         1 <0>         0.0000
  31082 WAT       -33.4320  -75.6660   -9.3330 O         1 <0>         0.0000
  31083 WAT       -33.4320  -75.6660   -9.0830 O         1 <0>         0.0000
  31084 WAT       -33.4320  -75.6660   -8.8330 O         1 <0>         0.0000
  31085 WAT       -33.4320  -75.6660   -8.5830 O         1 <0>         0.0000
  31086 WAT       -33.4320  -75.6660   -8.3330 O         1 <0>         0.0000
  31087 WAT       -33.4320  -75.6660   -8.0830 O         1 <0>         0.0000
  31088 WAT       -33.4320  -75.6660   -7.8330 O         1 <0>         0.0000
  31089 WAT       -33.4320  -75.6660   -7.5830 O         1 <0>         0.0000
  31090 WAT       -33.4320  -75.6660   -7.3330 O         1 <0>         0.0000
  31091 WAT       -33.4320  -75.6660   -7.0830 O         1 <0>         0.0000
  31092 WAT       -33.4320  -75.6660   -6.8330 O         1 <0>         0.0000
  31093 WAT       -33.4320  -75.6660   -6.5830 O         1 <0>         0.0000
  31094 WAT       -33.4320  -75.6660   -6.3330 O         1 <0>         0.0000
  31095 WAT       -33.4320  -75.6660   -6.0830 O         1 <0>         0.0000
  31096 WAT       -33.4320  -75.6660   -5.8330 O         1 <0>         0.0001
  31097 WAT       -33.4320  -75.6660   -5.5830 O         1 <0>         0.0002
  31098 WAT       -33.4320  -75.6660   -5.3330 O         1 <0>         0.0003
  31099 WAT       -33.4320  -75.6660   -5.0830 O         1 <0>         0.0002
  31100 WAT       -33.4320  -75.6660   -4.8330 O         1 <0>         0.0002
  31101 WAT       -33.4320  -75.6660   -4.5830 O         1 <0>         0.0002
  31102 WAT       -33.4320  -75.6660   -4.3330 O         1 <0>         0.0004
  31103 WAT       -33.4320  -75.6660   -4.0830 O         1 <0>         0.0007
  31104 WAT       -33.4320  -75.6660   -3.8330 O         1 <0>         0.0013
  31105 WAT       -33.4320  -75.6660   -3.5830 O         1 <0>         0.0021
  31106 WAT       -33.4320  -75.6660   -3.3330 O         1 <0>         0.0026
  31107 WAT       -33.4320  -75.6660   -3.0830 O         1 <0>         0.0024
  31108 WAT       -33.4320  -75.6660   -2.8330 O         1 <0>         0.0016
  31109 WAT       -33.4320  -75.6660   -2.5830 O         1 <0>         0.0007
  31110 WAT       -33.4320  -75.6660   -2.3330 O         1 <0>         0.0002
  31111 WAT       -33.4320  -75.6660   -2.0830 O         1 <0>         0.0000
  31112 WAT       -33.4320  -75.6660   -1.8330 O         1 <0>         0.0000
  31113 WAT       -33.4320  -75.6660   -1.5830 O         1 <0>         0.0000
  31114 WAT       -33.4320  -75.6660   -1.3330 O         1 <0>         0.0000
  31115 WAT       -33.4320  -75.6660   -1.0830 O         1 <0>         0.0000
  31116 WAT       -33.4320  -75.6660   -0.8330 O         1 <0>         0.0000
  31117 WAT       -33.4320  -75.6660   -0.5830 O         1 <0>         0.0000
  31118 WAT       -33.4320  -75.6660   -0.3330 O         1 <0>         0.0000
  31119 WAT       -33.4320  -75.6660   -0.0830 O         1 <0>         0.0000
  31120 WAT       -33.4320  -75.4160   -9.8330 O         1 <0>         0.0000
  31121 WAT       -33.4320  -75.4160   -9.5830 O         1 <0>         0.0000
  31122 WAT       -33.4320  -75.4160   -9.3330 O         1 <0>         0.0000
  31123 WAT       -33.4320  -75.4160   -9.0830 O         1 <0>         0.0000
  31124 WAT       -33.4320  -75.4160   -8.8330 O         1 <0>         0.0000
  31125 WAT       -33.4320  -75.4160   -8.5830 O         1 <0>         0.0000
  31126 WAT       -33.4320  -75.4160   -8.3330 O         1 <0>         0.0000
  31127 WAT       -33.4320  -75.4160   -8.0830 O         1 <0>         0.0000
  31128 WAT       -33.4320  -75.4160   -7.8330 O         1 <0>         0.0000
  31129 WAT       -33.4320  -75.4160   -7.5830 O         1 <0>         0.0000
  31130 WAT       -33.4320  -75.4160   -7.3330 O         1 <0>         0.0000
  31131 WAT       -33.4320  -75.4160   -7.0830 O         1 <0>         0.0000
  31132 WAT       -33.4320  -75.4160   -6.8330 O         1 <0>         0.0000
  31133 WAT       -33.4320  -75.4160   -6.5830 O         1 <0>         0.0000
  31134 WAT       -33.4320  -75.4160   -6.3330 O         1 <0>         0.0000
  31135 WAT       -33.4320  -75.4160   -6.0830 O         1 <0>         0.0002
  31136 WAT       -33.4320  -75.4160   -5.8330 O         1 <0>         0.0005
  31137 WAT       -33.4320  -75.4160   -5.5830 O         1 <0>         0.0009
  31138 WAT       -33.4320  -75.4160   -5.3330 O         1 <0>         0.0011
  31139 WAT       -33.4320  -75.4160   -5.0830 O         1 <0>         0.0010
  31140 WAT       -33.4320  -75.4160   -4.8330 O         1 <0>         0.0009
  31141 WAT       -33.4320  -75.4160   -4.5830 O         1 <0>         0.0011
  31142 WAT       -33.4320  -75.4160   -4.3330 O         1 <0>         0.0017
  31143 WAT       -33.4320  -75.4160   -4.0830 O         1 <0>         0.0027
  31144 WAT       -33.4320  -75.4160   -3.8330 O         1 <0>         0.0042
  31145 WAT       -33.4320  -75.4160   -3.5830 O         1 <0>         0.0059
  31146 WAT       -33.4320  -75.4160   -3.3330 O         1 <0>         0.0070
  31147 WAT       -33.4320  -75.4160   -3.0830 O         1 <0>         0.0067
  31148 WAT       -33.4320  -75.4160   -2.8330 O         1 <0>         0.0048
  31149 WAT       -33.4320  -75.4160   -2.5830 O         1 <0>         0.0024
  31150 WAT       -33.4320  -75.4160   -2.3330 O         1 <0>         0.0008
  31151 WAT       -33.4320  -75.4160   -2.0830 O         1 <0>         0.0002
  31152 WAT       -33.4320  -75.4160   -1.8330 O         1 <0>         0.0000
  31153 WAT       -33.4320  -75.4160   -1.5830 O         1 <0>         0.0000
  31154 WAT       -33.4320  -75.4160   -1.3330 O         1 <0>         0.0000
  31155 WAT       -33.4320  -75.4160   -1.0830 O         1 <0>         0.0000
  31156 WAT       -33.4320  -75.4160   -0.8330 O         1 <0>         0.0000
  31157 WAT       -33.4320  -75.4160   -0.5830 O         1 <0>         0.0000
  31158 WAT       -33.4320  -75.4160   -0.3330 O         1 <0>         0.0000
  31159 WAT       -33.4320  -75.4160   -0.0830 O         1 <0>         0.0000
  31160 WAT       -33.4320  -75.1660   -9.8330 O         1 <0>         0.0000
  31161 WAT       -33.4320  -75.1660   -9.5830 O         1 <0>         0.0000
  31162 WAT       -33.4320  -75.1660   -9.3330 O         1 <0>         0.0000
  31163 WAT       -33.4320  -75.1660   -9.0830 O         1 <0>         0.0000
  31164 WAT       -33.4320  -75.1660   -8.8330 O         1 <0>         0.0000
  31165 WAT       -33.4320  -75.1660   -8.5830 O         1 <0>         0.0000
  31166 WAT       -33.4320  -75.1660   -8.3330 O         1 <0>         0.0000
  31167 WAT       -33.4320  -75.1660   -8.0830 O         1 <0>         0.0000
  31168 WAT       -33.4320  -75.1660   -7.8330 O         1 <0>         0.0000
  31169 WAT       -33.4320  -75.1660   -7.5830 O         1 <0>         0.0000
  31170 WAT       -33.4320  -75.1660   -7.3330 O         1 <0>         0.0000
  31171 WAT       -33.4320  -75.1660   -7.0830 O         1 <0>         0.0000
  31172 WAT       -33.4320  -75.1660   -6.8330 O         1 <0>         0.0000
  31173 WAT       -33.4320  -75.1660   -6.5830 O         1 <0>         0.0000
  31174 WAT       -33.4320  -75.1660   -6.3330 O         1 <0>         0.0002
  31175 WAT       -33.4320  -75.1660   -6.0830 O         1 <0>         0.0006
  31176 WAT       -33.4320  -75.1660   -5.8330 O         1 <0>         0.0016
  31177 WAT       -33.4320  -75.1660   -5.5830 O         1 <0>         0.0026
  31178 WAT       -33.4320  -75.1660   -5.3330 O         1 <0>         0.0030
  31179 WAT       -33.4320  -75.1660   -5.0830 O         1 <0>         0.0030
  31180 WAT       -33.4320  -75.1660   -4.8330 O         1 <0>         0.0029
  31181 WAT       -33.4320  -75.1660   -4.5830 O         1 <0>         0.0033
  31182 WAT       -33.4320  -75.1660   -4.3330 O         1 <0>         0.0044
  31183 WAT       -33.4320  -75.1660   -4.0830 O         1 <0>         0.0061
  31184 WAT       -33.4320  -75.1660   -3.8330 O         1 <0>         0.0084
  31185 WAT       -33.4320  -75.1660   -3.5830 O         1 <0>         0.0109
  31186 WAT       -33.4320  -75.1660   -3.3330 O         1 <0>         0.0130
  31187 WAT       -33.4320  -75.1660   -3.0830 O         1 <0>         0.0134
  31188 WAT       -33.4320  -75.1660   -2.8330 O         1 <0>         0.0112
  31189 WAT       -33.4320  -75.1660   -2.5830 O         1 <0>         0.0073
  31190 WAT       -33.4320  -75.1660   -2.3330 O         1 <0>         0.0035
  31191 WAT       -33.4320  -75.1660   -2.0830 O         1 <0>         0.0012
  31192 WAT       -33.4320  -75.1660   -1.8330 O         1 <0>         0.0002
  31193 WAT       -33.4320  -75.1660   -1.5830 O         1 <0>         0.0000
  31194 WAT       -33.4320  -75.1660   -1.3330 O         1 <0>         0.0000
  31195 WAT       -33.4320  -75.1660   -1.0830 O         1 <0>         0.0000
  31196 WAT       -33.4320  -75.1660   -0.8330 O         1 <0>         0.0000
  31197 WAT       -33.4320  -75.1660   -0.5830 O         1 <0>         0.0000
  31198 WAT       -33.4320  -75.1660   -0.3330 O         1 <0>         0.0000
  31199 WAT       -33.4320  -75.1660   -0.0830 O         1 <0>         0.0000
  31200 WAT       -33.4320  -74.9160   -9.8330 O         1 <0>         0.0000
  31201 WAT       -33.4320  -74.9160   -9.5830 O         1 <0>         0.0000
  31202 WAT       -33.4320  -74.9160   -9.3330 O         1 <0>         0.0000
  31203 WAT       -33.4320  -74.9160   -9.0830 O         1 <0>         0.0000
  31204 WAT       -33.4320  -74.9160   -8.8330 O         1 <0>         0.0000
  31205 WAT       -33.4320  -74.9160   -8.5830 O         1 <0>         0.0000
  31206 WAT       -33.4320  -74.9160   -8.3330 O         1 <0>         0.0000
  31207 WAT       -33.4320  -74.9160   -8.0830 O         1 <0>         0.0000
  31208 WAT       -33.4320  -74.9160   -7.8330 O         1 <0>         0.0000
  31209 WAT       -33.4320  -74.9160   -7.5830 O         1 <0>         0.0000
  31210 WAT       -33.4320  -74.9160   -7.3330 O         1 <0>         0.0000
  31211 WAT       -33.4320  -74.9160   -7.0830 O         1 <0>         0.0000
  31212 WAT       -33.4320  -74.9160   -6.8330 O         1 <0>         0.0000
  31213 WAT       -33.4320  -74.9160   -6.5830 O         1 <0>         0.0001
  31214 WAT       -33.4320  -74.9160   -6.3330 O         1 <0>         0.0005
  31215 WAT       -33.4320  -74.9160   -6.0830 O         1 <0>         0.0017
  31216 WAT       -33.4320  -74.9160   -5.8330 O         1 <0>         0.0036
  31217 WAT       -33.4320  -74.9160   -5.5830 O         1 <0>         0.0056
  31218 WAT       -33.4320  -74.9160   -5.3330 O         1 <0>         0.0066
  31219 WAT       -33.4320  -74.9160   -5.0830 O         1 <0>         0.0065
  31220 WAT       -33.4320  -74.9160   -4.8330 O         1 <0>         0.0062
  31221 WAT       -33.4320  -74.9160   -4.5830 O         1 <0>         0.0066
  31222 WAT       -33.4320  -74.9160   -4.3330 O         1 <0>         0.0077
  31223 WAT       -33.4320  -74.9160   -4.0830 O         1 <0>         0.0093
  31224 WAT       -33.4320  -74.9160   -3.8330 O         1 <0>         0.0116
  31225 WAT       -33.4320  -74.9160   -3.5830 O         1 <0>         0.0149
  31226 WAT       -33.4320  -74.9160   -3.3330 O         1 <0>         0.0195
  31227 WAT       -33.4320  -74.9160   -3.0830 O         1 <0>         0.0238
  31228 WAT       -33.4320  -74.9160   -2.8330 O         1 <0>         0.0247
  31229 WAT       -33.4320  -74.9160   -2.5830 O         1 <0>         0.0204
  31230 WAT       -33.4320  -74.9160   -2.3330 O         1 <0>         0.0124
  31231 WAT       -33.4320  -74.9160   -2.0830 O         1 <0>         0.0053
  31232 WAT       -33.4320  -74.9160   -1.8330 O         1 <0>         0.0014
  31233 WAT       -33.4320  -74.9160   -1.5830 O         1 <0>         0.0002
  31234 WAT       -33.4320  -74.9160   -1.3330 O         1 <0>         0.0000
  31235 WAT       -33.4320  -74.9160   -1.0830 O         1 <0>         0.0000
  31236 WAT       -33.4320  -74.9160   -0.8330 O         1 <0>         0.0000
  31237 WAT       -33.4320  -74.9160   -0.5830 O         1 <0>         0.0000
  31238 WAT       -33.4320  -74.9160   -0.3330 O         1 <0>         0.0000
  31239 WAT       -33.4320  -74.9160   -0.0830 O         1 <0>         0.0000
  31240 WAT       -33.4320  -74.6660   -9.8330 O         1 <0>         0.0000
  31241 WAT       -33.4320  -74.6660   -9.5830 O         1 <0>         0.0000
  31242 WAT       -33.4320  -74.6660   -9.3330 O         1 <0>         0.0000
  31243 WAT       -33.4320  -74.6660   -9.0830 O         1 <0>         0.0000
  31244 WAT       -33.4320  -74.6660   -8.8330 O         1 <0>         0.0000
  31245 WAT       -33.4320  -74.6660   -8.5830 O         1 <0>         0.0000
  31246 WAT       -33.4320  -74.6660   -8.3330 O         1 <0>         0.0000
  31247 WAT       -33.4320  -74.6660   -8.0830 O         1 <0>         0.0000
  31248 WAT       -33.4320  -74.6660   -7.8330 O         1 <0>         0.0000
  31249 WAT       -33.4320  -74.6660   -7.5830 O         1 <0>         0.0000
  31250 WAT       -33.4320  -74.6660   -7.3330 O         1 <0>         0.0000
  31251 WAT       -33.4320  -74.6660   -7.0830 O         1 <0>         0.0000
  31252 WAT       -33.4320  -74.6660   -6.8330 O         1 <0>         0.0001
  31253 WAT       -33.4320  -74.6660   -6.5830 O         1 <0>         0.0004
  31254 WAT       -33.4320  -74.6660   -6.3330 O         1 <0>         0.0014
  31255 WAT       -33.4320  -74.6660   -6.0830 O         1 <0>         0.0037
  31256 WAT       -33.4320  -74.6660   -5.8330 O         1 <0>         0.0069
  31257 WAT       -33.4320  -74.6660   -5.5830 O         1 <0>         0.0099
  31258 WAT       -33.4320  -74.6660   -5.3330 O         1 <0>         0.0113
  31259 WAT       -33.4320  -74.6660   -5.0830 O         1 <0>         0.0107
  31260 WAT       -33.4320  -74.6660   -4.8330 O         1 <0>         0.0097
  31261 WAT       -33.4320  -74.6660   -4.5830 O         1 <0>         0.0092
  31262 WAT       -33.4320  -74.6660   -4.3330 O         1 <0>         0.0093
  31263 WAT       -33.4320  -74.6660   -4.0830 O         1 <0>         0.0100
  31264 WAT       -33.4320  -74.6660   -3.8330 O         1 <0>         0.0123
  31265 WAT       -33.4320  -74.6660   -3.5830 O         1 <0>         0.0177
  31266 WAT       -33.4320  -74.6660   -3.3330 O         1 <0>         0.0282
  31267 WAT       -33.4320  -74.6660   -3.0830 O         1 <0>         0.0429
  31268 WAT       -33.4320  -74.6660   -2.8330 O         1 <0>         0.0532
  31269 WAT       -33.4320  -74.6660   -2.5830 O         1 <0>         0.0502
  31270 WAT       -33.4320  -74.6660   -2.3330 O         1 <0>         0.0344
  31271 WAT       -33.4320  -74.6660   -2.0830 O         1 <0>         0.0164
  31272 WAT       -33.4320  -74.6660   -1.8330 O         1 <0>         0.0052
  31273 WAT       -33.4320  -74.6660   -1.5830 O         1 <0>         0.0010
  31274 WAT       -33.4320  -74.6660   -1.3330 O         1 <0>         0.0001
  31275 WAT       -33.4320  -74.6660   -1.0830 O         1 <0>         0.0000
  31276 WAT       -33.4320  -74.6660   -0.8330 O         1 <0>         0.0000
  31277 WAT       -33.4320  -74.6660   -0.5830 O         1 <0>         0.0000
  31278 WAT       -33.4320  -74.6660   -0.3330 O         1 <0>         0.0000
  31279 WAT       -33.4320  -74.6660   -0.0830 O         1 <0>         0.0000
  31280 WAT       -33.4320  -74.4160   -9.8330 O         1 <0>         0.0000
  31281 WAT       -33.4320  -74.4160   -9.5830 O         1 <0>         0.0000
  31282 WAT       -33.4320  -74.4160   -9.3330 O         1 <0>         0.0000
  31283 WAT       -33.4320  -74.4160   -9.0830 O         1 <0>         0.0000
  31284 WAT       -33.4320  -74.4160   -8.8330 O         1 <0>         0.0000
  31285 WAT       -33.4320  -74.4160   -8.5830 O         1 <0>         0.0000
  31286 WAT       -33.4320  -74.4160   -8.3330 O         1 <0>         0.0000
  31287 WAT       -33.4320  -74.4160   -8.0830 O         1 <0>         0.0000
  31288 WAT       -33.4320  -74.4160   -7.8330 O         1 <0>         0.0000
  31289 WAT       -33.4320  -74.4160   -7.5830 O         1 <0>         0.0000
  31290 WAT       -33.4320  -74.4160   -7.3330 O         1 <0>         0.0000
  31291 WAT       -33.4320  -74.4160   -7.0830 O         1 <0>         0.0000
  31292 WAT       -33.4320  -74.4160   -6.8330 O         1 <0>         0.0003
  31293 WAT       -33.4320  -74.4160   -6.5830 O         1 <0>         0.0012
  31294 WAT       -33.4320  -74.4160   -6.3330 O         1 <0>         0.0032
  31295 WAT       -33.4320  -74.4160   -6.0830 O         1 <0>         0.0069
  31296 WAT       -33.4320  -74.4160   -5.8330 O         1 <0>         0.0115
  31297 WAT       -33.4320  -74.4160   -5.5830 O         1 <0>         0.0153
  31298 WAT       -33.4320  -74.4160   -5.3330 O         1 <0>         0.0163
  31299 WAT       -33.4320  -74.4160   -5.0830 O         1 <0>         0.0145
  31300 WAT       -33.4320  -74.4160   -4.8330 O         1 <0>         0.0117
  31301 WAT       -33.4320  -74.4160   -4.5830 O         1 <0>         0.0095
  31302 WAT       -33.4320  -74.4160   -4.3330 O         1 <0>         0.0082
  31303 WAT       -33.4320  -74.4160   -4.0830 O         1 <0>         0.0084
  31304 WAT       -33.4320  -74.4160   -3.8330 O         1 <0>         0.0116
  31305 WAT       -33.4320  -74.4160   -3.5830 O         1 <0>         0.0219
  31306 WAT       -33.4320  -74.4160   -3.3330 O         1 <0>         0.0441
  31307 WAT       -33.4320  -74.4160   -3.0830 O         1 <0>         0.0760
  31308 WAT       -33.4320  -74.4160   -2.8330 O         1 <0>         0.1013
  31309 WAT       -33.4320  -74.4160   -2.5830 O         1 <0>         0.1002
  31310 WAT       -33.4320  -74.4160   -2.3330 O         1 <0>         0.0715
  31311 WAT       -33.4320  -74.4160   -2.0830 O         1 <0>         0.0358
  31312 WAT       -33.4320  -74.4160   -1.8330 O         1 <0>         0.0122
  31313 WAT       -33.4320  -74.4160   -1.5830 O         1 <0>         0.0026
  31314 WAT       -33.4320  -74.4160   -1.3330 O         1 <0>         0.0003
  31315 WAT       -33.4320  -74.4160   -1.0830 O         1 <0>         0.0000
  31316 WAT       -33.4320  -74.4160   -0.8330 O         1 <0>         0.0000
  31317 WAT       -33.4320  -74.4160   -0.5830 O         1 <0>         0.0000
  31318 WAT       -33.4320  -74.4160   -0.3330 O         1 <0>         0.0000
  31319 WAT       -33.4320  -74.4160   -0.0830 O         1 <0>         0.0000
  31320 WAT       -33.4320  -74.1660   -9.8330 O         1 <0>         0.0000
  31321 WAT       -33.4320  -74.1660   -9.5830 O         1 <0>         0.0000
  31322 WAT       -33.4320  -74.1660   -9.3330 O         1 <0>         0.0000
  31323 WAT       -33.4320  -74.1660   -9.0830 O         1 <0>         0.0000
  31324 WAT       -33.4320  -74.1660   -8.8330 O         1 <0>         0.0000
  31325 WAT       -33.4320  -74.1660   -8.5830 O         1 <0>         0.0000
  31326 WAT       -33.4320  -74.1660   -8.3330 O         1 <0>         0.0000
  31327 WAT       -33.4320  -74.1660   -8.0830 O         1 <0>         0.0000
  31328 WAT       -33.4320  -74.1660   -7.8330 O         1 <0>         0.0000
  31329 WAT       -33.4320  -74.1660   -7.5830 O         1 <0>         0.0000
  31330 WAT       -33.4320  -74.1660   -7.3330 O         1 <0>         0.0000
  31331 WAT       -33.4320  -74.1660   -7.0830 O         1 <0>         0.0002
  31332 WAT       -33.4320  -74.1660   -6.8330 O         1 <0>         0.0009
  31333 WAT       -33.4320  -74.1660   -6.5830 O         1 <0>         0.0027
  31334 WAT       -33.4320  -74.1660   -6.3330 O         1 <0>         0.0059
  31335 WAT       -33.4320  -74.1660   -6.0830 O         1 <0>         0.0109
  31336 WAT       -33.4320  -74.1660   -5.8330 O         1 <0>         0.0167
  31337 WAT       -33.4320  -74.1660   -5.5830 O         1 <0>         0.0209
  31338 WAT       -33.4320  -74.1660   -5.3330 O         1 <0>         0.0213
  31339 WAT       -33.4320  -74.1660   -5.0830 O         1 <0>         0.0176
  31340 WAT       -33.4320  -74.1660   -4.8330 O         1 <0>         0.0123
  31341 WAT       -33.4320  -74.1660   -4.5830 O         1 <0>         0.0081
  31342 WAT       -33.4320  -74.1660   -4.3330 O         1 <0>         0.0059
  31343 WAT       -33.4320  -74.1660   -4.0830 O         1 <0>         0.0063
  31344 WAT       -33.4320  -74.1660   -3.8330 O         1 <0>         0.0122
  31345 WAT       -33.4320  -74.1660   -3.5830 O         1 <0>         0.0306
  31346 WAT       -33.4320  -74.1660   -3.3330 O         1 <0>         0.0682
  31347 WAT       -33.4320  -74.1660   -3.0830 O         1 <0>         0.1187
  31348 WAT       -33.4320  -74.1660   -2.8330 O         1 <0>         0.1563
  31349 WAT       -33.4320  -74.1660   -2.5830 O         1 <0>         0.1528
  31350 WAT       -33.4320  -74.1660   -2.3330 O         1 <0>         0.1089
  31351 WAT       -33.4320  -74.1660   -2.0830 O         1 <0>         0.0552
  31352 WAT       -33.4320  -74.1660   -1.8330 O         1 <0>         0.0193
  31353 WAT       -33.4320  -74.1660   -1.5830 O         1 <0>         0.0043
  31354 WAT       -33.4320  -74.1660   -1.3330 O         1 <0>         0.0005
  31355 WAT       -33.4320  -74.1660   -1.0830 O         1 <0>         0.0000
  31356 WAT       -33.4320  -74.1660   -0.8330 O         1 <0>         0.0000
  31357 WAT       -33.4320  -74.1660   -0.5830 O         1 <0>         0.0000
  31358 WAT       -33.4320  -74.1660   -0.3330 O         1 <0>         0.0000
  31359 WAT       -33.4320  -74.1660   -0.0830 O         1 <0>         0.0000
  31360 WAT       -33.4320  -73.9160   -9.8330 O         1 <0>         0.0000
  31361 WAT       -33.4320  -73.9160   -9.5830 O         1 <0>         0.0000
  31362 WAT       -33.4320  -73.9160   -9.3330 O         1 <0>         0.0000
  31363 WAT       -33.4320  -73.9160   -9.0830 O         1 <0>         0.0000
  31364 WAT       -33.4320  -73.9160   -8.8330 O         1 <0>         0.0000
  31365 WAT       -33.4320  -73.9160   -8.5830 O         1 <0>         0.0000
  31366 WAT       -33.4320  -73.9160   -8.3330 O         1 <0>         0.0000
  31367 WAT       -33.4320  -73.9160   -8.0830 O         1 <0>         0.0000
  31368 WAT       -33.4320  -73.9160   -7.8330 O         1 <0>         0.0000
  31369 WAT       -33.4320  -73.9160   -7.5830 O         1 <0>         0.0000
  31370 WAT       -33.4320  -73.9160   -7.3330 O         1 <0>         0.0001
  31371 WAT       -33.4320  -73.9160   -7.0830 O         1 <0>         0.0006
  31372 WAT       -33.4320  -73.9160   -6.8330 O         1 <0>         0.0019
  31373 WAT       -33.4320  -73.9160   -6.5830 O         1 <0>         0.0045
  31374 WAT       -33.4320  -73.9160   -6.3330 O         1 <0>         0.0086
  31375 WAT       -33.4320  -73.9160   -6.0830 O         1 <0>         0.0141
  31376 WAT       -33.4320  -73.9160   -5.8330 O         1 <0>         0.0202
  31377 WAT       -33.4320  -73.9160   -5.5830 O         1 <0>         0.0248
  31378 WAT       -33.4320  -73.9160   -5.3330 O         1 <0>         0.0251
  31379 WAT       -33.4320  -73.9160   -5.0830 O         1 <0>         0.0200
  31380 WAT       -33.4320  -73.9160   -4.8330 O         1 <0>         0.0126
  31381 WAT       -33.4320  -73.9160   -4.5830 O         1 <0>         0.0068
  31382 WAT       -33.4320  -73.9160   -4.3330 O         1 <0>         0.0040
  31383 WAT       -33.4320  -73.9160   -4.0830 O         1 <0>         0.0052
  31384 WAT       -33.4320  -73.9160   -3.8330 O         1 <0>         0.0146
  31385 WAT       -33.4320  -73.9160   -3.5830 O         1 <0>         0.0417
  31386 WAT       -33.4320  -73.9160   -3.3330 O         1 <0>         0.0919
  31387 WAT       -33.4320  -73.9160   -3.0830 O         1 <0>         0.1520
  31388 WAT       -33.4320  -73.9160   -2.8330 O         1 <0>         0.1885
  31389 WAT       -33.4320  -73.9160   -2.5830 O         1 <0>         0.1751
  31390 WAT       -33.4320  -73.9160   -2.3330 O         1 <0>         0.1207
  31391 WAT       -33.4320  -73.9160   -2.0830 O         1 <0>         0.0603
  31392 WAT       -33.4320  -73.9160   -1.8330 O         1 <0>         0.0210
  31393 WAT       -33.4320  -73.9160   -1.5830 O         1 <0>         0.0048
  31394 WAT       -33.4320  -73.9160   -1.3330 O         1 <0>         0.0006
  31395 WAT       -33.4320  -73.9160   -1.0830 O         1 <0>         0.0000
  31396 WAT       -33.4320  -73.9160   -0.8330 O         1 <0>         0.0000
  31397 WAT       -33.4320  -73.9160   -0.5830 O         1 <0>         0.0000
  31398 WAT       -33.4320  -73.9160   -0.3330 O         1 <0>         0.0000
  31399 WAT       -33.4320  -73.9160   -0.0830 O         1 <0>         0.0000
  31400 WAT       -33.4320  -73.6660   -9.8330 O         1 <0>         0.0000
  31401 WAT       -33.4320  -73.6660   -9.5830 O         1 <0>         0.0000
  31402 WAT       -33.4320  -73.6660   -9.3330 O         1 <0>         0.0000
  31403 WAT       -33.4320  -73.6660   -9.0830 O         1 <0>         0.0000
  31404 WAT       -33.4320  -73.6660   -8.8330 O         1 <0>         0.0000
  31405 WAT       -33.4320  -73.6660   -8.5830 O         1 <0>         0.0000
  31406 WAT       -33.4320  -73.6660   -8.3330 O         1 <0>         0.0000
  31407 WAT       -33.4320  -73.6660   -8.0830 O         1 <0>         0.0000
  31408 WAT       -33.4320  -73.6660   -7.8330 O         1 <0>         0.0000
  31409 WAT       -33.4320  -73.6660   -7.5830 O         1 <0>         0.0000
  31410 WAT       -33.4320  -73.6660   -7.3330 O         1 <0>         0.0003
  31411 WAT       -33.4320  -73.6660   -7.0830 O         1 <0>         0.0013
  31412 WAT       -33.4320  -73.6660   -6.8330 O         1 <0>         0.0033
  31413 WAT       -33.4320  -73.6660   -6.5830 O         1 <0>         0.0062
  31414 WAT       -33.4320  -73.6660   -6.3330 O         1 <0>         0.0099
  31415 WAT       -33.4320  -73.6660   -6.0830 O         1 <0>         0.0144
  31416 WAT       -33.4320  -73.6660   -5.8330 O         1 <0>         0.0199
  31417 WAT       -33.4320  -73.6660   -5.5830 O         1 <0>         0.0246
  31418 WAT       -33.4320  -73.6660   -5.3330 O         1 <0>         0.0253
  31419 WAT       -33.4320  -73.6660   -5.0830 O         1 <0>         0.0203
  31420 WAT       -33.4320  -73.6660   -4.8330 O         1 <0>         0.0125
  31421 WAT       -33.4320  -73.6660   -4.5830 O         1 <0>         0.0061
  31422 WAT       -33.4320  -73.6660   -4.3330 O         1 <0>         0.0031
  31423 WAT       -33.4320  -73.6660   -4.0830 O         1 <0>         0.0048
  31424 WAT       -33.4320  -73.6660   -3.8330 O         1 <0>         0.0164
  31425 WAT       -33.4320  -73.6660   -3.5830 O         1 <0>         0.0479
  31426 WAT       -33.4320  -73.6660   -3.3330 O         1 <0>         0.1012
  31427 WAT       -33.4320  -73.6660   -3.0830 O         1 <0>         0.1558
  31428 WAT       -33.4320  -73.6660   -2.8330 O         1 <0>         0.1776
  31429 WAT       -33.4320  -73.6660   -2.5830 O         1 <0>         0.1525
  31430 WAT       -33.4320  -73.6660   -2.3330 O         1 <0>         0.0991
  31431 WAT       -33.4320  -73.6660   -2.0830 O         1 <0>         0.0478
  31432 WAT       -33.4320  -73.6660   -1.8330 O         1 <0>         0.0165
  31433 WAT       -33.4320  -73.6660   -1.5830 O         1 <0>         0.0038
  31434 WAT       -33.4320  -73.6660   -1.3330 O         1 <0>         0.0004
  31435 WAT       -33.4320  -73.6660   -1.0830 O         1 <0>         0.0000
  31436 WAT       -33.4320  -73.6660   -0.8330 O         1 <0>         0.0000
  31437 WAT       -33.4320  -73.6660   -0.5830 O         1 <0>         0.0000
  31438 WAT       -33.4320  -73.6660   -0.3330 O         1 <0>         0.0000
  31439 WAT       -33.4320  -73.6660   -0.0830 O         1 <0>         0.0000
  31440 WAT       -33.4320  -73.4160   -9.8330 O         1 <0>         0.0000
  31441 WAT       -33.4320  -73.4160   -9.5830 O         1 <0>         0.0000
  31442 WAT       -33.4320  -73.4160   -9.3330 O         1 <0>         0.0000
  31443 WAT       -33.4320  -73.4160   -9.0830 O         1 <0>         0.0000
  31444 WAT       -33.4320  -73.4160   -8.8330 O         1 <0>         0.0000
  31445 WAT       -33.4320  -73.4160   -8.5830 O         1 <0>         0.0000
  31446 WAT       -33.4320  -73.4160   -8.3330 O         1 <0>         0.0000
  31447 WAT       -33.4320  -73.4160   -8.0830 O         1 <0>         0.0000
  31448 WAT       -33.4320  -73.4160   -7.8330 O         1 <0>         0.0000
  31449 WAT       -33.4320  -73.4160   -7.5830 O         1 <0>         0.0001
  31450 WAT       -33.4320  -73.4160   -7.3330 O         1 <0>         0.0008
  31451 WAT       -33.4320  -73.4160   -7.0830 O         1 <0>         0.0025
  31452 WAT       -33.4320  -73.4160   -6.8330 O         1 <0>         0.0050
  31453 WAT       -33.4320  -73.4160   -6.5830 O         1 <0>         0.0074
  31454 WAT       -33.4320  -73.4160   -6.3330 O         1 <0>         0.0094
  31455 WAT       -33.4320  -73.4160   -6.0830 O         1 <0>         0.0120
  31456 WAT       -33.4320  -73.4160   -5.8330 O         1 <0>         0.0158
  31457 WAT       -33.4320  -73.4160   -5.5830 O         1 <0>         0.0196
  31458 WAT       -33.4320  -73.4160   -5.3330 O         1 <0>         0.0207
  31459 WAT       -33.4320  -73.4160   -5.0830 O         1 <0>         0.0172
  31460 WAT       -33.4320  -73.4160   -4.8330 O         1 <0>         0.0109
  31461 WAT       -33.4320  -73.4160   -4.5830 O         1 <0>         0.0054
  31462 WAT       -33.4320  -73.4160   -4.3330 O         1 <0>         0.0027
  31463 WAT       -33.4320  -73.4160   -4.0830 O         1 <0>         0.0042
  31464 WAT       -33.4320  -73.4160   -3.8330 O         1 <0>         0.0153
  31465 WAT       -33.4320  -73.4160   -3.5830 O         1 <0>         0.0446
  31466 WAT       -33.4320  -73.4160   -3.3330 O         1 <0>         0.0909
  31467 WAT       -33.4320  -73.4160   -3.0830 O         1 <0>         0.1309
  31468 WAT       -33.4320  -73.4160   -2.8330 O         1 <0>         0.1369
  31469 WAT       -33.4320  -73.4160   -2.5830 O         1 <0>         0.1074
  31470 WAT       -33.4320  -73.4160   -2.3330 O         1 <0>         0.0645
  31471 WAT       -33.4320  -73.4160   -2.0830 O         1 <0>         0.0295
  31472 WAT       -33.4320  -73.4160   -1.8330 O         1 <0>         0.0100
  31473 WAT       -33.4320  -73.4160   -1.5830 O         1 <0>         0.0023
  31474 WAT       -33.4320  -73.4160   -1.3330 O         1 <0>         0.0003
  31475 WAT       -33.4320  -73.4160   -1.0830 O         1 <0>         0.0000
  31476 WAT       -33.4320  -73.4160   -0.8330 O         1 <0>         0.0000
  31477 WAT       -33.4320  -73.4160   -0.5830 O         1 <0>         0.0000
  31478 WAT       -33.4320  -73.4160   -0.3330 O         1 <0>         0.0000
  31479 WAT       -33.4320  -73.4160   -0.0830 O         1 <0>         0.0000
  31480 WAT       -33.4320  -73.1660   -9.8330 O         1 <0>         0.0000
  31481 WAT       -33.4320  -73.1660   -9.5830 O         1 <0>         0.0000
  31482 WAT       -33.4320  -73.1660   -9.3330 O         1 <0>         0.0000
  31483 WAT       -33.4320  -73.1660   -9.0830 O         1 <0>         0.0000
  31484 WAT       -33.4320  -73.1660   -8.8330 O         1 <0>         0.0000
  31485 WAT       -33.4320  -73.1660   -8.5830 O         1 <0>         0.0000
  31486 WAT       -33.4320  -73.1660   -8.3330 O         1 <0>         0.0000
  31487 WAT       -33.4320  -73.1660   -8.0830 O         1 <0>         0.0000
  31488 WAT       -33.4320  -73.1660   -7.8330 O         1 <0>         0.0000
  31489 WAT       -33.4320  -73.1660   -7.5830 O         1 <0>         0.0003
  31490 WAT       -33.4320  -73.1660   -7.3330 O         1 <0>         0.0016
  31491 WAT       -33.4320  -73.1660   -7.0830 O         1 <0>         0.0043
  31492 WAT       -33.4320  -73.1660   -6.8330 O         1 <0>         0.0073
  31493 WAT       -33.4320  -73.1660   -6.5830 O         1 <0>         0.0086
  31494 WAT       -33.4320  -73.1660   -6.3330 O         1 <0>         0.0081
  31495 WAT       -33.4320  -73.1660   -6.0830 O         1 <0>         0.0082
  31496 WAT       -33.4320  -73.1660   -5.8330 O         1 <0>         0.0100
  31497 WAT       -33.4320  -73.1660   -5.5830 O         1 <0>         0.0125
  31498 WAT       -33.4320  -73.1660   -5.3330 O         1 <0>         0.0137
  31499 WAT       -33.4320  -73.1660   -5.0830 O         1 <0>         0.0120
  31500 WAT       -33.4320  -73.1660   -4.8330 O         1 <0>         0.0082
  31501 WAT       -33.4320  -73.1660   -4.5830 O         1 <0>         0.0045
  31502 WAT       -33.4320  -73.1660   -4.3330 O         1 <0>         0.0023
  31503 WAT       -33.4320  -73.1660   -4.0830 O         1 <0>         0.0033
  31504 WAT       -33.4320  -73.1660   -3.8330 O         1 <0>         0.0121
  31505 WAT       -33.4320  -73.1660   -3.5830 O         1 <0>         0.0354
  31506 WAT       -33.4320  -73.1660   -3.3330 O         1 <0>         0.0707
  31507 WAT       -33.4320  -73.1660   -3.0830 O         1 <0>         0.0978
  31508 WAT       -33.4320  -73.1660   -2.8330 O         1 <0>         0.0962
  31509 WAT       -33.4320  -73.1660   -2.5830 O         1 <0>         0.0698
  31510 WAT       -33.4320  -73.1660   -2.3330 O         1 <0>         0.0386
  31511 WAT       -33.4320  -73.1660   -2.0830 O         1 <0>         0.0166
  31512 WAT       -33.4320  -73.1660   -1.8330 O         1 <0>         0.0055
  31513 WAT       -33.4320  -73.1660   -1.5830 O         1 <0>         0.0013
  31514 WAT       -33.4320  -73.1660   -1.3330 O         1 <0>         0.0001
  31515 WAT       -33.4320  -73.1660   -1.0830 O         1 <0>         0.0000
  31516 WAT       -33.4320  -73.1660   -0.8330 O         1 <0>         0.0000
  31517 WAT       -33.4320  -73.1660   -0.5830 O         1 <0>         0.0000
  31518 WAT       -33.4320  -73.1660   -0.3330 O         1 <0>         0.0000
  31519 WAT       -33.4320  -73.1660   -0.0830 O         1 <0>         0.0000
  31520 WAT       -33.4320  -72.9160   -9.8330 O         1 <0>         0.0000
  31521 WAT       -33.4320  -72.9160   -9.5830 O         1 <0>         0.0000
  31522 WAT       -33.4320  -72.9160   -9.3330 O         1 <0>         0.0000
  31523 WAT       -33.4320  -72.9160   -9.0830 O         1 <0>         0.0000
  31524 WAT       -33.4320  -72.9160   -8.8330 O         1 <0>         0.0000
  31525 WAT       -33.4320  -72.9160   -8.5830 O         1 <0>         0.0000
  31526 WAT       -33.4320  -72.9160   -8.3330 O         1 <0>         0.0000
  31527 WAT       -33.4320  -72.9160   -8.0830 O         1 <0>         0.0000
  31528 WAT       -33.4320  -72.9160   -7.8330 O         1 <0>         0.0001
  31529 WAT       -33.4320  -72.9160   -7.5830 O         1 <0>         0.0006
  31530 WAT       -33.4320  -72.9160   -7.3330 O         1 <0>         0.0026
  31531 WAT       -33.4320  -72.9160   -7.0830 O         1 <0>         0.0064
  31532 WAT       -33.4320  -72.9160   -6.8330 O         1 <0>         0.0097
  31533 WAT       -33.4320  -72.9160   -6.5830 O         1 <0>         0.0098
  31534 WAT       -33.4320  -72.9160   -6.3330 O         1 <0>         0.0071
  31535 WAT       -33.4320  -72.9160   -6.0830 O         1 <0>         0.0051
  31536 WAT       -33.4320  -72.9160   -5.8330 O         1 <0>         0.0052
  31537 WAT       -33.4320  -72.9160   -5.5830 O         1 <0>         0.0066
  31538 WAT       -33.4320  -72.9160   -5.3330 O         1 <0>         0.0077
  31539 WAT       -33.4320  -72.9160   -5.0830 O         1 <0>         0.0074
  31540 WAT       -33.4320  -72.9160   -4.8330 O         1 <0>         0.0059
  31541 WAT       -33.4320  -72.9160   -4.5830 O         1 <0>         0.0039
  31542 WAT       -33.4320  -72.9160   -4.3330 O         1 <0>         0.0023
  31543 WAT       -33.4320  -72.9160   -4.0830 O         1 <0>         0.0025
  31544 WAT       -33.4320  -72.9160   -3.8330 O         1 <0>         0.0085
  31545 WAT       -33.4320  -72.9160   -3.5830 O         1 <0>         0.0255
  31546 WAT       -33.4320  -72.9160   -3.3330 O         1 <0>         0.0515
  31547 WAT       -33.4320  -72.9160   -3.0830 O         1 <0>         0.0711
  31548 WAT       -33.4320  -72.9160   -2.8330 O         1 <0>         0.0684
  31549 WAT       -33.4320  -72.9160   -2.5830 O         1 <0>         0.0473
  31550 WAT       -33.4320  -72.9160   -2.3330 O         1 <0>         0.0244
  31551 WAT       -33.4320  -72.9160   -2.0830 O         1 <0>         0.0097
  31552 WAT       -33.4320  -72.9160   -1.8330 O         1 <0>         0.0030
  31553 WAT       -33.4320  -72.9160   -1.5830 O         1 <0>         0.0006
  31554 WAT       -33.4320  -72.9160   -1.3330 O         1 <0>         0.0001
  31555 WAT       -33.4320  -72.9160   -1.0830 O         1 <0>         0.0000
  31556 WAT       -33.4320  -72.9160   -0.8330 O         1 <0>         0.0000
  31557 WAT       -33.4320  -72.9160   -0.5830 O         1 <0>         0.0000
  31558 WAT       -33.4320  -72.9160   -0.3330 O         1 <0>         0.0000
  31559 WAT       -33.4320  -72.9160   -0.0830 O         1 <0>         0.0000
  31560 WAT       -33.4320  -72.6660   -9.8330 O         1 <0>         0.0000
  31561 WAT       -33.4320  -72.6660   -9.5830 O         1 <0>         0.0000
  31562 WAT       -33.4320  -72.6660   -9.3330 O         1 <0>         0.0000
  31563 WAT       -33.4320  -72.6660   -9.0830 O         1 <0>         0.0000
  31564 WAT       -33.4320  -72.6660   -8.8330 O         1 <0>         0.0000
  31565 WAT       -33.4320  -72.6660   -8.5830 O         1 <0>         0.0000
  31566 WAT       -33.4320  -72.6660   -8.3330 O         1 <0>         0.0000
  31567 WAT       -33.4320  -72.6660   -8.0830 O         1 <0>         0.0000
  31568 WAT       -33.4320  -72.6660   -7.8330 O         1 <0>         0.0001
  31569 WAT       -33.4320  -72.6660   -7.5830 O         1 <0>         0.0009
  31570 WAT       -33.4320  -72.6660   -7.3330 O         1 <0>         0.0033
  31571 WAT       -33.4320  -72.6660   -7.0830 O         1 <0>         0.0076
  31572 WAT       -33.4320  -72.6660   -6.8330 O         1 <0>         0.0109
  31573 WAT       -33.4320  -72.6660   -6.5830 O         1 <0>         0.0099
  31574 WAT       -33.4320  -72.6660   -6.3330 O         1 <0>         0.0061
  31575 WAT       -33.4320  -72.6660   -6.0830 O         1 <0>         0.0033
  31576 WAT       -33.4320  -72.6660   -5.8330 O         1 <0>         0.0027
  31577 WAT       -33.4320  -72.6660   -5.5830 O         1 <0>         0.0034
  31578 WAT       -33.4320  -72.6660   -5.3330 O         1 <0>         0.0042
  31579 WAT       -33.4320  -72.6660   -5.0830 O         1 <0>         0.0046
  31580 WAT       -33.4320  -72.6660   -4.8330 O         1 <0>         0.0045
  31581 WAT       -33.4320  -72.6660   -4.5830 O         1 <0>         0.0036
  31582 WAT       -33.4320  -72.6660   -4.3330 O         1 <0>         0.0023
  31583 WAT       -33.4320  -72.6660   -4.0830 O         1 <0>         0.0019
  31584 WAT       -33.4320  -72.6660   -3.8330 O         1 <0>         0.0055
  31585 WAT       -33.4320  -72.6660   -3.5830 O         1 <0>         0.0168
  31586 WAT       -33.4320  -72.6660   -3.3330 O         1 <0>         0.0347
  31587 WAT       -33.4320  -72.6660   -3.0830 O         1 <0>         0.0484
  31588 WAT       -33.4320  -72.6660   -2.8330 O         1 <0>         0.0463
  31589 WAT       -33.4320  -72.6660   -2.5830 O         1 <0>         0.0312
  31590 WAT       -33.4320  -72.6660   -2.3330 O         1 <0>         0.0152
  31591 WAT       -33.4320  -72.6660   -2.0830 O         1 <0>         0.0056
  31592 WAT       -33.4320  -72.6660   -1.8330 O         1 <0>         0.0015
  31593 WAT       -33.4320  -72.6660   -1.5830 O         1 <0>         0.0002
  31594 WAT       -33.4320  -72.6660   -1.3330 O         1 <0>         0.0000
  31595 WAT       -33.4320  -72.6660   -1.0830 O         1 <0>         0.0000
  31596 WAT       -33.4320  -72.6660   -0.8330 O         1 <0>         0.0000
  31597 WAT       -33.4320  -72.6660   -0.5830 O         1 <0>         0.0000
  31598 WAT       -33.4320  -72.6660   -0.3330 O         1 <0>         0.0000
  31599 WAT       -33.4320  -72.6660   -0.0830 O         1 <0>         0.0000
  31600 WAT       -33.4320  -72.4160   -9.8330 O         1 <0>         0.0000
  31601 WAT       -33.4320  -72.4160   -9.5830 O         1 <0>         0.0000
  31602 WAT       -33.4320  -72.4160   -9.3330 O         1 <0>         0.0000
  31603 WAT       -33.4320  -72.4160   -9.0830 O         1 <0>         0.0000
  31604 WAT       -33.4320  -72.4160   -8.8330 O         1 <0>         0.0000
  31605 WAT       -33.4320  -72.4160   -8.5830 O         1 <0>         0.0000
  31606 WAT       -33.4320  -72.4160   -8.3330 O         1 <0>         0.0000
  31607 WAT       -33.4320  -72.4160   -8.0830 O         1 <0>         0.0000
  31608 WAT       -33.4320  -72.4160   -7.8330 O         1 <0>         0.0001
  31609 WAT       -33.4320  -72.4160   -7.5830 O         1 <0>         0.0010
  31610 WAT       -33.4320  -72.4160   -7.3330 O         1 <0>         0.0035
  31611 WAT       -33.4320  -72.4160   -7.0830 O         1 <0>         0.0073
  31612 WAT       -33.4320  -72.4160   -6.8330 O         1 <0>         0.0098
  31613 WAT       -33.4320  -72.4160   -6.5830 O         1 <0>         0.0083
  31614 WAT       -33.4320  -72.4160   -6.3330 O         1 <0>         0.0048
  31615 WAT       -33.4320  -72.4160   -6.0830 O         1 <0>         0.0025
  31616 WAT       -33.4320  -72.4160   -5.8330 O         1 <0>         0.0022
  31617 WAT       -33.4320  -72.4160   -5.5830 O         1 <0>         0.0027
  31618 WAT       -33.4320  -72.4160   -5.3330 O         1 <0>         0.0031
  31619 WAT       -33.4320  -72.4160   -5.0830 O         1 <0>         0.0033
  31620 WAT       -33.4320  -72.4160   -4.8330 O         1 <0>         0.0033
  31621 WAT       -33.4320  -72.4160   -4.5830 O         1 <0>         0.0028
  31622 WAT       -33.4320  -72.4160   -4.3330 O         1 <0>         0.0019
  31623 WAT       -33.4320  -72.4160   -4.0830 O         1 <0>         0.0013
  31624 WAT       -33.4320  -72.4160   -3.8330 O         1 <0>         0.0029
  31625 WAT       -33.4320  -72.4160   -3.5830 O         1 <0>         0.0089
  31626 WAT       -33.4320  -72.4160   -3.3330 O         1 <0>         0.0188
  31627 WAT       -33.4320  -72.4160   -3.0830 O         1 <0>         0.0263
  31628 WAT       -33.4320  -72.4160   -2.8330 O         1 <0>         0.0249
  31629 WAT       -33.4320  -72.4160   -2.5830 O         1 <0>         0.0164
  31630 WAT       -33.4320  -72.4160   -2.3330 O         1 <0>         0.0075
  31631 WAT       -33.4320  -72.4160   -2.0830 O         1 <0>         0.0024
  31632 WAT       -33.4320  -72.4160   -1.8330 O         1 <0>         0.0005
  31633 WAT       -33.4320  -72.4160   -1.5830 O         1 <0>         0.0000
  31634 WAT       -33.4320  -72.4160   -1.3330 O         1 <0>         0.0000
  31635 WAT       -33.4320  -72.4160   -1.0830 O         1 <0>         0.0000
  31636 WAT       -33.4320  -72.4160   -0.8330 O         1 <0>         0.0000
  31637 WAT       -33.4320  -72.4160   -0.5830 O         1 <0>         0.0000
  31638 WAT       -33.4320  -72.4160   -0.3330 O         1 <0>         0.0000
  31639 WAT       -33.4320  -72.4160   -0.0830 O         1 <0>         0.0000
  31640 WAT       -33.4320  -72.1660   -9.8330 O         1 <0>         0.0000
  31641 WAT       -33.4320  -72.1660   -9.5830 O         1 <0>         0.0000
  31642 WAT       -33.4320  -72.1660   -9.3330 O         1 <0>         0.0000
  31643 WAT       -33.4320  -72.1660   -9.0830 O         1 <0>         0.0000
  31644 WAT       -33.4320  -72.1660   -8.8330 O         1 <0>         0.0000
  31645 WAT       -33.4320  -72.1660   -8.5830 O         1 <0>         0.0000
  31646 WAT       -33.4320  -72.1660   -8.3330 O         1 <0>         0.0000
  31647 WAT       -33.4320  -72.1660   -8.0830 O         1 <0>         0.0000
  31648 WAT       -33.4320  -72.1660   -7.8330 O         1 <0>         0.0002
  31649 WAT       -33.4320  -72.1660   -7.5830 O         1 <0>         0.0010
  31650 WAT       -33.4320  -72.1660   -7.3330 O         1 <0>         0.0031
  31651 WAT       -33.4320  -72.1660   -7.0830 O         1 <0>         0.0059
  31652 WAT       -33.4320  -72.1660   -6.8330 O         1 <0>         0.0073
  31653 WAT       -33.4320  -72.1660   -6.5830 O         1 <0>         0.0058
  31654 WAT       -33.4320  -72.1660   -6.3330 O         1 <0>         0.0034
  31655 WAT       -33.4320  -72.1660   -6.0830 O         1 <0>         0.0022
  31656 WAT       -33.4320  -72.1660   -5.8330 O         1 <0>         0.0024
  31657 WAT       -33.4320  -72.1660   -5.5830 O         1 <0>         0.0029
  31658 WAT       -33.4320  -72.1660   -5.3330 O         1 <0>         0.0028
  31659 WAT       -33.4320  -72.1660   -5.0830 O         1 <0>         0.0024
  31660 WAT       -33.4320  -72.1660   -4.8330 O         1 <0>         0.0021
  31661 WAT       -33.4320  -72.1660   -4.5830 O         1 <0>         0.0017
  31662 WAT       -33.4320  -72.1660   -4.3330 O         1 <0>         0.0011
  31663 WAT       -33.4320  -72.1660   -4.0830 O         1 <0>         0.0007
  31664 WAT       -33.4320  -72.1660   -3.8330 O         1 <0>         0.0011
  31665 WAT       -33.4320  -72.1660   -3.5830 O         1 <0>         0.0033
  31666 WAT       -33.4320  -72.1660   -3.3330 O         1 <0>         0.0071
  31667 WAT       -33.4320  -72.1660   -3.0830 O         1 <0>         0.0099
  31668 WAT       -33.4320  -72.1660   -2.8330 O         1 <0>         0.0092
  31669 WAT       -33.4320  -72.1660   -2.5830 O         1 <0>         0.0058
  31670 WAT       -33.4320  -72.1660   -2.3330 O         1 <0>         0.0025
  31671 WAT       -33.4320  -72.1660   -2.0830 O         1 <0>         0.0007
  31672 WAT       -33.4320  -72.1660   -1.8330 O         1 <0>         0.0001
  31673 WAT       -33.4320  -72.1660   -1.5830 O         1 <0>         0.0000
  31674 WAT       -33.4320  -72.1660   -1.3330 O         1 <0>         0.0000
  31675 WAT       -33.4320  -72.1660   -1.0830 O         1 <0>         0.0000
  31676 WAT       -33.4320  -72.1660   -0.8330 O         1 <0>         0.0000
  31677 WAT       -33.4320  -72.1660   -0.5830 O         1 <0>         0.0000
  31678 WAT       -33.4320  -72.1660   -0.3330 O         1 <0>         0.0000
  31679 WAT       -33.4320  -72.1660   -0.0830 O         1 <0>         0.0000
  31680 WAT       -33.4320  -71.9160   -9.8330 O         1 <0>         0.0000
  31681 WAT       -33.4320  -71.9160   -9.5830 O         1 <0>         0.0000
  31682 WAT       -33.4320  -71.9160   -9.3330 O         1 <0>         0.0000
  31683 WAT       -33.4320  -71.9160   -9.0830 O         1 <0>         0.0000
  31684 WAT       -33.4320  -71.9160   -8.8330 O         1 <0>         0.0000
  31685 WAT       -33.4320  -71.9160   -8.5830 O         1 <0>         0.0000
  31686 WAT       -33.4320  -71.9160   -8.3330 O         1 <0>         0.0000
  31687 WAT       -33.4320  -71.9160   -8.0830 O         1 <0>         0.0000
  31688 WAT       -33.4320  -71.9160   -7.8330 O         1 <0>         0.0003
  31689 WAT       -33.4320  -71.9160   -7.5830 O         1 <0>         0.0012
  31690 WAT       -33.4320  -71.9160   -7.3330 O         1 <0>         0.0029
  31691 WAT       -33.4320  -71.9160   -7.0830 O         1 <0>         0.0049
  31692 WAT       -33.4320  -71.9160   -6.8330 O         1 <0>         0.0053
  31693 WAT       -33.4320  -71.9160   -6.5830 O         1 <0>         0.0041
  31694 WAT       -33.4320  -71.9160   -6.3330 O         1 <0>         0.0028
  31695 WAT       -33.4320  -71.9160   -6.0830 O         1 <0>         0.0025
  31696 WAT       -33.4320  -71.9160   -5.8330 O         1 <0>         0.0028
  31697 WAT       -33.4320  -71.9160   -5.5830 O         1 <0>         0.0028
  31698 WAT       -33.4320  -71.9160   -5.3330 O         1 <0>         0.0022
  31699 WAT       -33.4320  -71.9160   -5.0830 O         1 <0>         0.0015
  31700 WAT       -33.4320  -71.9160   -4.8330 O         1 <0>         0.0010
  31701 WAT       -33.4320  -71.9160   -4.5830 O         1 <0>         0.0007
  31702 WAT       -33.4320  -71.9160   -4.3330 O         1 <0>         0.0004
  31703 WAT       -33.4320  -71.9160   -4.0830 O         1 <0>         0.0002
  31704 WAT       -33.4320  -71.9160   -3.8330 O         1 <0>         0.0002
  31705 WAT       -33.4320  -71.9160   -3.5830 O         1 <0>         0.0007
  31706 WAT       -33.4320  -71.9160   -3.3330 O         1 <0>         0.0016
  31707 WAT       -33.4320  -71.9160   -3.0830 O         1 <0>         0.0023
  31708 WAT       -33.4320  -71.9160   -2.8330 O         1 <0>         0.0020
  31709 WAT       -33.4320  -71.9160   -2.5830 O         1 <0>         0.0012
  31710 WAT       -33.4320  -71.9160   -2.3330 O         1 <0>         0.0004
  31711 WAT       -33.4320  -71.9160   -2.0830 O         1 <0>         0.0001
  31712 WAT       -33.4320  -71.9160   -1.8330 O         1 <0>         0.0000
  31713 WAT       -33.4320  -71.9160   -1.5830 O         1 <0>         0.0000
  31714 WAT       -33.4320  -71.9160   -1.3330 O         1 <0>         0.0000
  31715 WAT       -33.4320  -71.9160   -1.0830 O         1 <0>         0.0000
  31716 WAT       -33.4320  -71.9160   -0.8330 O         1 <0>         0.0000
  31717 WAT       -33.4320  -71.9160   -0.5830 O         1 <0>         0.0000
  31718 WAT       -33.4320  -71.9160   -0.3330 O         1 <0>         0.0000
  31719 WAT       -33.4320  -71.9160   -0.0830 O         1 <0>         0.0000
  31720 WAT       -33.4320  -71.6660   -9.8330 O         1 <0>         0.0000
  31721 WAT       -33.4320  -71.6660   -9.5830 O         1 <0>         0.0000
  31722 WAT       -33.4320  -71.6660   -9.3330 O         1 <0>         0.0000
  31723 WAT       -33.4320  -71.6660   -9.0830 O         1 <0>         0.0000
  31724 WAT       -33.4320  -71.6660   -8.8330 O         1 <0>         0.0000
  31725 WAT       -33.4320  -71.6660   -8.5830 O         1 <0>         0.0000
  31726 WAT       -33.4320  -71.6660   -8.3330 O         1 <0>         0.0000
  31727 WAT       -33.4320  -71.6660   -8.0830 O         1 <0>         0.0001
  31728 WAT       -33.4320  -71.6660   -7.8330 O         1 <0>         0.0005
  31729 WAT       -33.4320  -71.6660   -7.5830 O         1 <0>         0.0018
  31730 WAT       -33.4320  -71.6660   -7.3330 O         1 <0>         0.0038
  31731 WAT       -33.4320  -71.6660   -7.0830 O         1 <0>         0.0055
  31732 WAT       -33.4320  -71.6660   -6.8330 O         1 <0>         0.0056
  31733 WAT       -33.4320  -71.6660   -6.5830 O         1 <0>         0.0048
  31734 WAT       -33.4320  -71.6660   -6.3330 O         1 <0>         0.0047
  31735 WAT       -33.4320  -71.6660   -6.0830 O         1 <0>         0.0046
  31736 WAT       -33.4320  -71.6660   -5.8330 O         1 <0>         0.0037
  31737 WAT       -33.4320  -71.6660   -5.5830 O         1 <0>         0.0025
  31738 WAT       -33.4320  -71.6660   -5.3330 O         1 <0>         0.0014
  31739 WAT       -33.4320  -71.6660   -5.0830 O         1 <0>         0.0007
  31740 WAT       -33.4320  -71.6660   -4.8330 O         1 <0>         0.0003
  31741 WAT       -33.4320  -71.6660   -4.5830 O         1 <0>         0.0002
  31742 WAT       -33.4320  -71.6660   -4.3330 O         1 <0>         0.0001
  31743 WAT       -33.4320  -71.6660   -4.0830 O         1 <0>         0.0000
  31744 WAT       -33.4320  -71.6660   -3.8330 O         1 <0>         0.0000
  31745 WAT       -33.4320  -71.6660   -3.5830 O         1 <0>         0.0001
  31746 WAT       -33.4320  -71.6660   -3.3330 O         1 <0>         0.0001
  31747 WAT       -33.4320  -71.6660   -3.0830 O         1 <0>         0.0002
  31748 WAT       -33.4320  -71.6660   -2.8330 O         1 <0>         0.0002
  31749 WAT       -33.4320  -71.6660   -2.5830 O         1 <0>         0.0001
  31750 WAT       -33.4320  -71.6660   -2.3330 O         1 <0>         0.0000
  31751 WAT       -33.4320  -71.6660   -2.0830 O         1 <0>         0.0000
  31752 WAT       -33.4320  -71.6660   -1.8330 O         1 <0>         0.0000
  31753 WAT       -33.4320  -71.6660   -1.5830 O         1 <0>         0.0000
  31754 WAT       -33.4320  -71.6660   -1.3330 O         1 <0>         0.0000
  31755 WAT       -33.4320  -71.6660   -1.0830 O         1 <0>         0.0000
  31756 WAT       -33.4320  -71.6660   -0.8330 O         1 <0>         0.0000
  31757 WAT       -33.4320  -71.6660   -0.5830 O         1 <0>         0.0000
  31758 WAT       -33.4320  -71.6660   -0.3330 O         1 <0>         0.0000
  31759 WAT       -33.4320  -71.6660   -0.0830 O         1 <0>         0.0000
  31760 WAT       -33.4320  -71.4160   -9.8330 O         1 <0>         0.0000
  31761 WAT       -33.4320  -71.4160   -9.5830 O         1 <0>         0.0000
  31762 WAT       -33.4320  -71.4160   -9.3330 O         1 <0>         0.0000
  31763 WAT       -33.4320  -71.4160   -9.0830 O         1 <0>         0.0000
  31764 WAT       -33.4320  -71.4160   -8.8330 O         1 <0>         0.0000
  31765 WAT       -33.4320  -71.4160   -8.5830 O         1 <0>         0.0000
  31766 WAT       -33.4320  -71.4160   -8.3330 O         1 <0>         0.0000
  31767 WAT       -33.4320  -71.4160   -8.0830 O         1 <0>         0.0001
  31768 WAT       -33.4320  -71.4160   -7.8330 O         1 <0>         0.0010
  31769 WAT       -33.4320  -71.4160   -7.5830 O         1 <0>         0.0032
  31770 WAT       -33.4320  -71.4160   -7.3330 O         1 <0>         0.0064
  31771 WAT       -33.4320  -71.4160   -7.0830 O         1 <0>         0.0088
  31772 WAT       -33.4320  -71.4160   -6.8330 O         1 <0>         0.0097
  31773 WAT       -33.4320  -71.4160   -6.5830 O         1 <0>         0.0109
  31774 WAT       -33.4320  -71.4160   -6.3330 O         1 <0>         0.0125
  31775 WAT       -33.4320  -71.4160   -6.0830 O         1 <0>         0.0115
  31776 WAT       -33.4320  -71.4160   -5.8330 O         1 <0>         0.0072
  31777 WAT       -33.4320  -71.4160   -5.5830 O         1 <0>         0.0030
  31778 WAT       -33.4320  -71.4160   -5.3330 O         1 <0>         0.0008
  31779 WAT       -33.4320  -71.4160   -5.0830 O         1 <0>         0.0002
  31780 WAT       -33.4320  -71.4160   -4.8330 O         1 <0>         0.0001
  31781 WAT       -33.4320  -71.4160   -4.5830 O         1 <0>         0.0000
  31782 WAT       -33.4320  -71.4160   -4.3330 O         1 <0>         0.0000
  31783 WAT       -33.4320  -71.4160   -4.0830 O         1 <0>         0.0000
  31784 WAT       -33.4320  -71.4160   -3.8330 O         1 <0>         0.0000
  31785 WAT       -33.4320  -71.4160   -3.5830 O         1 <0>         0.0000
  31786 WAT       -33.4320  -71.4160   -3.3330 O         1 <0>         0.0000
  31787 WAT       -33.4320  -71.4160   -3.0830 O         1 <0>         0.0000
  31788 WAT       -33.4320  -71.4160   -2.8330 O         1 <0>         0.0000
  31789 WAT       -33.4320  -71.4160   -2.5830 O         1 <0>         0.0000
  31790 WAT       -33.4320  -71.4160   -2.3330 O         1 <0>         0.0000
  31791 WAT       -33.4320  -71.4160   -2.0830 O         1 <0>         0.0000
  31792 WAT       -33.4320  -71.4160   -1.8330 O         1 <0>         0.0000
  31793 WAT       -33.4320  -71.4160   -1.5830 O         1 <0>         0.0000
  31794 WAT       -33.4320  -71.4160   -1.3330 O         1 <0>         0.0000
  31795 WAT       -33.4320  -71.4160   -1.0830 O         1 <0>         0.0000
  31796 WAT       -33.4320  -71.4160   -0.8330 O         1 <0>         0.0000
  31797 WAT       -33.4320  -71.4160   -0.5830 O         1 <0>         0.0000
  31798 WAT       -33.4320  -71.4160   -0.3330 O         1 <0>         0.0000
  31799 WAT       -33.4320  -71.4160   -0.0830 O         1 <0>         0.0000
  31800 WAT       -33.4320  -71.1660   -9.8330 O         1 <0>         0.0000
  31801 WAT       -33.4320  -71.1660   -9.5830 O         1 <0>         0.0000
  31802 WAT       -33.4320  -71.1660   -9.3330 O         1 <0>         0.0000
  31803 WAT       -33.4320  -71.1660   -9.0830 O         1 <0>         0.0000
  31804 WAT       -33.4320  -71.1660   -8.8330 O         1 <0>         0.0000
  31805 WAT       -33.4320  -71.1660   -8.5830 O         1 <0>         0.0000
  31806 WAT       -33.4320  -71.1660   -8.3330 O         1 <0>         0.0000
  31807 WAT       -33.4320  -71.1660   -8.0830 O         1 <0>         0.0003
  31808 WAT       -33.4320  -71.1660   -7.8330 O         1 <0>         0.0019
  31809 WAT       -33.4320  -71.1660   -7.5830 O         1 <0>         0.0057
  31810 WAT       -33.4320  -71.1660   -7.3330 O         1 <0>         0.0112
  31811 WAT       -33.4320  -71.1660   -7.0830 O         1 <0>         0.0164
  31812 WAT       -33.4320  -71.1660   -6.8330 O         1 <0>         0.0217
  31813 WAT       -33.4320  -71.1660   -6.5830 O         1 <0>         0.0291
  31814 WAT       -33.4320  -71.1660   -6.3330 O         1 <0>         0.0340
  31815 WAT       -33.4320  -71.1660   -6.0830 O         1 <0>         0.0287
  31816 WAT       -33.4320  -71.1660   -5.8330 O         1 <0>         0.0158
  31817 WAT       -33.4320  -71.1660   -5.5830 O         1 <0>         0.0051
  31818 WAT       -33.4320  -71.1660   -5.3330 O         1 <0>         0.0008
  31819 WAT       -33.4320  -71.1660   -5.0830 O         1 <0>         0.0001
  31820 WAT       -33.4320  -71.1660   -4.8330 O         1 <0>         0.0000
  31821 WAT       -33.4320  -71.1660   -4.5830 O         1 <0>         0.0000
  31822 WAT       -33.4320  -71.1660   -4.3330 O         1 <0>         0.0000
  31823 WAT       -33.4320  -71.1660   -4.0830 O         1 <0>         0.0000
  31824 WAT       -33.4320  -71.1660   -3.8330 O         1 <0>         0.0000
  31825 WAT       -33.4320  -71.1660   -3.5830 O         1 <0>         0.0000
  31826 WAT       -33.4320  -71.1660   -3.3330 O         1 <0>         0.0000
  31827 WAT       -33.4320  -71.1660   -3.0830 O         1 <0>         0.0000
  31828 WAT       -33.4320  -71.1660   -2.8330 O         1 <0>         0.0000
  31829 WAT       -33.4320  -71.1660   -2.5830 O         1 <0>         0.0000
  31830 WAT       -33.4320  -71.1660   -2.3330 O         1 <0>         0.0000
  31831 WAT       -33.4320  -71.1660   -2.0830 O         1 <0>         0.0000
  31832 WAT       -33.4320  -71.1660   -1.8330 O         1 <0>         0.0000
  31833 WAT       -33.4320  -71.1660   -1.5830 O         1 <0>         0.0000
  31834 WAT       -33.4320  -71.1660   -1.3330 O         1 <0>         0.0000
  31835 WAT       -33.4320  -71.1660   -1.0830 O         1 <0>         0.0000
  31836 WAT       -33.4320  -71.1660   -0.8330 O         1 <0>         0.0000
  31837 WAT       -33.4320  -71.1660   -0.5830 O         1 <0>         0.0000
  31838 WAT       -33.4320  -71.1660   -0.3330 O         1 <0>         0.0000
  31839 WAT       -33.4320  -71.1660   -0.0830 O         1 <0>         0.0000
  31840 WAT       -33.4320  -70.9160   -9.8330 O         1 <0>         0.0000
  31841 WAT       -33.4320  -70.9160   -9.5830 O         1 <0>         0.0000
  31842 WAT       -33.4320  -70.9160   -9.3330 O         1 <0>         0.0000
  31843 WAT       -33.4320  -70.9160   -9.0830 O         1 <0>         0.0000
  31844 WAT       -33.4320  -70.9160   -8.8330 O         1 <0>         0.0000
  31845 WAT       -33.4320  -70.9160   -8.5830 O         1 <0>         0.0000
  31846 WAT       -33.4320  -70.9160   -8.3330 O         1 <0>         0.0001
  31847 WAT       -33.4320  -70.9160   -8.0830 O         1 <0>         0.0006
  31848 WAT       -33.4320  -70.9160   -7.8330 O         1 <0>         0.0031
  31849 WAT       -33.4320  -70.9160   -7.5830 O         1 <0>         0.0091
  31850 WAT       -33.4320  -70.9160   -7.3330 O         1 <0>         0.0184
  31851 WAT       -33.4320  -70.9160   -7.0830 O         1 <0>         0.0302
  31852 WAT       -33.4320  -70.9160   -6.8330 O         1 <0>         0.0464
  31853 WAT       -33.4320  -70.9160   -6.5830 O         1 <0>         0.0664
  31854 WAT       -33.4320  -70.9160   -6.3330 O         1 <0>         0.0754
  31855 WAT       -33.4320  -70.9160   -6.0830 O         1 <0>         0.0598
  31856 WAT       -33.4320  -70.9160   -5.8330 O         1 <0>         0.0306
  31857 WAT       -33.4320  -70.9160   -5.5830 O         1 <0>         0.0090
  31858 WAT       -33.4320  -70.9160   -5.3330 O         1 <0>         0.0011
  31859 WAT       -33.4320  -70.9160   -5.0830 O         1 <0>         0.0000
  31860 WAT       -33.4320  -70.9160   -4.8330 O         1 <0>         0.0000
  31861 WAT       -33.4320  -70.9160   -4.5830 O         1 <0>         0.0000
  31862 WAT       -33.4320  -70.9160   -4.3330 O         1 <0>         0.0000
  31863 WAT       -33.4320  -70.9160   -4.0830 O         1 <0>         0.0000
  31864 WAT       -33.4320  -70.9160   -3.8330 O         1 <0>         0.0000
  31865 WAT       -33.4320  -70.9160   -3.5830 O         1 <0>         0.0000
  31866 WAT       -33.4320  -70.9160   -3.3330 O         1 <0>         0.0000
  31867 WAT       -33.4320  -70.9160   -3.0830 O         1 <0>         0.0000
  31868 WAT       -33.4320  -70.9160   -2.8330 O         1 <0>         0.0000
  31869 WAT       -33.4320  -70.9160   -2.5830 O         1 <0>         0.0000
  31870 WAT       -33.4320  -70.9160   -2.3330 O         1 <0>         0.0000
  31871 WAT       -33.4320  -70.9160   -2.0830 O         1 <0>         0.0000
  31872 WAT       -33.4320  -70.9160   -1.8330 O         1 <0>         0.0000
  31873 WAT       -33.4320  -70.9160   -1.5830 O         1 <0>         0.0000
  31874 WAT       -33.4320  -70.9160   -1.3330 O         1 <0>         0.0000
  31875 WAT       -33.4320  -70.9160   -1.0830 O         1 <0>         0.0000
  31876 WAT       -33.4320  -70.9160   -0.8330 O         1 <0>         0.0000
  31877 WAT       -33.4320  -70.9160   -0.5830 O         1 <0>         0.0000
  31878 WAT       -33.4320  -70.9160   -0.3330 O         1 <0>         0.0000
  31879 WAT       -33.4320  -70.9160   -0.0830 O         1 <0>         0.0000
  31880 WAT       -33.4320  -70.6660   -9.8330 O         1 <0>         0.0000
  31881 WAT       -33.4320  -70.6660   -9.5830 O         1 <0>         0.0000
  31882 WAT       -33.4320  -70.6660   -9.3330 O         1 <0>         0.0000
  31883 WAT       -33.4320  -70.6660   -9.0830 O         1 <0>         0.0000
  31884 WAT       -33.4320  -70.6660   -8.8330 O         1 <0>         0.0000
  31885 WAT       -33.4320  -70.6660   -8.5830 O         1 <0>         0.0000
  31886 WAT       -33.4320  -70.6660   -8.3330 O         1 <0>         0.0001
  31887 WAT       -33.4320  -70.6660   -8.0830 O         1 <0>         0.0009
  31888 WAT       -33.4320  -70.6660   -7.8330 O         1 <0>         0.0040
  31889 WAT       -33.4320  -70.6660   -7.5830 O         1 <0>         0.0118
  31890 WAT       -33.4320  -70.6660   -7.3330 O         1 <0>         0.0253
  31891 WAT       -33.4320  -70.6660   -7.0830 O         1 <0>         0.0465
  31892 WAT       -33.4320  -70.6660   -6.8330 O         1 <0>         0.0793
  31893 WAT       -33.4320  -70.6660   -6.5830 O         1 <0>         0.1162
  31894 WAT       -33.4320  -70.6660   -6.3330 O         1 <0>         0.1280
  31895 WAT       -33.4320  -70.6660   -6.0830 O         1 <0>         0.0966
  31896 WAT       -33.4320  -70.6660   -5.8330 O         1 <0>         0.0471
  31897 WAT       -33.4320  -70.6660   -5.5830 O         1 <0>         0.0132
  31898 WAT       -33.4320  -70.6660   -5.3330 O         1 <0>         0.0015
  31899 WAT       -33.4320  -70.6660   -5.0830 O         1 <0>         0.0000
  31900 WAT       -33.4320  -70.6660   -4.8330 O         1 <0>         0.0000
  31901 WAT       -33.4320  -70.6660   -4.5830 O         1 <0>         0.0000
  31902 WAT       -33.4320  -70.6660   -4.3330 O         1 <0>         0.0000
  31903 WAT       -33.4320  -70.6660   -4.0830 O         1 <0>         0.0000
  31904 WAT       -33.4320  -70.6660   -3.8330 O         1 <0>         0.0000
  31905 WAT       -33.4320  -70.6660   -3.5830 O         1 <0>         0.0000
  31906 WAT       -33.4320  -70.6660   -3.3330 O         1 <0>         0.0000
  31907 WAT       -33.4320  -70.6660   -3.0830 O         1 <0>         0.0000
  31908 WAT       -33.4320  -70.6660   -2.8330 O         1 <0>         0.0000
  31909 WAT       -33.4320  -70.6660   -2.5830 O         1 <0>         0.0000
  31910 WAT       -33.4320  -70.6660   -2.3330 O         1 <0>         0.0000
  31911 WAT       -33.4320  -70.6660   -2.0830 O         1 <0>         0.0000
  31912 WAT       -33.4320  -70.6660   -1.8330 O         1 <0>         0.0000
  31913 WAT       -33.4320  -70.6660   -1.5830 O         1 <0>         0.0000
  31914 WAT       -33.4320  -70.6660   -1.3330 O         1 <0>         0.0000
  31915 WAT       -33.4320  -70.6660   -1.0830 O         1 <0>         0.0000
  31916 WAT       -33.4320  -70.6660   -0.8330 O         1 <0>         0.0000
  31917 WAT       -33.4320  -70.6660   -0.5830 O         1 <0>         0.0000
  31918 WAT       -33.4320  -70.6660   -0.3330 O         1 <0>         0.0000
  31919 WAT       -33.4320  -70.6660   -0.0830 O         1 <0>         0.0000
  31920 WAT       -33.4320  -70.4160   -9.8330 O         1 <0>         0.0000
  31921 WAT       -33.4320  -70.4160   -9.5830 O         1 <0>         0.0000
  31922 WAT       -33.4320  -70.4160   -9.3330 O         1 <0>         0.0000
  31923 WAT       -33.4320  -70.4160   -9.0830 O         1 <0>         0.0000
  31924 WAT       -33.4320  -70.4160   -8.8330 O         1 <0>         0.0000
  31925 WAT       -33.4320  -70.4160   -8.5830 O         1 <0>         0.0000
  31926 WAT       -33.4320  -70.4160   -8.3330 O         1 <0>         0.0001
  31927 WAT       -33.4320  -70.4160   -8.0830 O         1 <0>         0.0008
  31928 WAT       -33.4320  -70.4160   -7.8330 O         1 <0>         0.0039
  31929 WAT       -33.4320  -70.4160   -7.5830 O         1 <0>         0.0116
  31930 WAT       -33.4320  -70.4160   -7.3330 O         1 <0>         0.0270
  31931 WAT       -33.4320  -70.4160   -7.0830 O         1 <0>         0.0551
  31932 WAT       -33.4320  -70.4160   -6.8330 O         1 <0>         0.1008
  31933 WAT       -33.4320  -70.4160   -6.5830 O         1 <0>         0.1500
  31934 WAT       -33.4320  -70.4160   -6.3330 O         1 <0>         0.1620
  31935 WAT       -33.4320  -70.4160   -6.0830 O         1 <0>         0.1180
  31936 WAT       -33.4320  -70.4160   -5.8330 O         1 <0>         0.0554
  31937 WAT       -33.4320  -70.4160   -5.5830 O         1 <0>         0.0150
  31938 WAT       -33.4320  -70.4160   -5.3330 O         1 <0>         0.0016
  31939 WAT       -33.4320  -70.4160   -5.0830 O         1 <0>         0.0000
  31940 WAT       -33.4320  -70.4160   -4.8330 O         1 <0>         0.0000
  31941 WAT       -33.4320  -70.4160   -4.5830 O         1 <0>         0.0000
  31942 WAT       -33.4320  -70.4160   -4.3330 O         1 <0>         0.0000
  31943 WAT       -33.4320  -70.4160   -4.0830 O         1 <0>         0.0000
  31944 WAT       -33.4320  -70.4160   -3.8330 O         1 <0>         0.0000
  31945 WAT       -33.4320  -70.4160   -3.5830 O         1 <0>         0.0000
  31946 WAT       -33.4320  -70.4160   -3.3330 O         1 <0>         0.0000
  31947 WAT       -33.4320  -70.4160   -3.0830 O         1 <0>         0.0000
  31948 WAT       -33.4320  -70.4160   -2.8330 O         1 <0>         0.0000
  31949 WAT       -33.4320  -70.4160   -2.5830 O         1 <0>         0.0000
  31950 WAT       -33.4320  -70.4160   -2.3330 O         1 <0>         0.0000
  31951 WAT       -33.4320  -70.4160   -2.0830 O         1 <0>         0.0000
  31952 WAT       -33.4320  -70.4160   -1.8330 O         1 <0>         0.0000
  31953 WAT       -33.4320  -70.4160   -1.5830 O         1 <0>         0.0000
  31954 WAT       -33.4320  -70.4160   -1.3330 O         1 <0>         0.0000
  31955 WAT       -33.4320  -70.4160   -1.0830 O         1 <0>         0.0000
  31956 WAT       -33.4320  -70.4160   -0.8330 O         1 <0>         0.0000
  31957 WAT       -33.4320  -70.4160   -0.5830 O         1 <0>         0.0000
  31958 WAT       -33.4320  -70.4160   -0.3330 O         1 <0>         0.0000
  31959 WAT       -33.4320  -70.4160   -0.0830 O         1 <0>         0.0000
  31960 WAT       -33.4320  -70.1660   -9.8330 O         1 <0>         0.0000
  31961 WAT       -33.4320  -70.1660   -9.5830 O         1 <0>         0.0000
  31962 WAT       -33.4320  -70.1660   -9.3330 O         1 <0>         0.0000
  31963 WAT       -33.4320  -70.1660   -9.0830 O         1 <0>         0.0000
  31964 WAT       -33.4320  -70.1660   -8.8330 O         1 <0>         0.0000
  31965 WAT       -33.4320  -70.1660   -8.5830 O         1 <0>         0.0000
  31966 WAT       -33.4320  -70.1660   -8.3330 O         1 <0>         0.0001
  31967 WAT       -33.4320  -70.1660   -8.0830 O         1 <0>         0.0006
  31968 WAT       -33.4320  -70.1660   -7.8330 O         1 <0>         0.0027
  31969 WAT       -33.4320  -70.1660   -7.5830 O         1 <0>         0.0084
  31970 WAT       -33.4320  -70.1660   -7.3330 O         1 <0>         0.0212
  31971 WAT       -33.4320  -70.1660   -7.0830 O         1 <0>         0.0474
  31972 WAT       -33.4320  -70.1660   -6.8330 O         1 <0>         0.0920
  31973 WAT       -33.4320  -70.1660   -6.5830 O         1 <0>         0.1388
  31974 WAT       -33.4320  -70.1660   -6.3330 O         1 <0>         0.1483
  31975 WAT       -33.4320  -70.1660   -6.0830 O         1 <0>         0.1056
  31976 WAT       -33.4320  -70.1660   -5.8330 O         1 <0>         0.0482
  31977 WAT       -33.4320  -70.1660   -5.5830 O         1 <0>         0.0125
  31978 WAT       -33.4320  -70.1660   -5.3330 O         1 <0>         0.0013
  31979 WAT       -33.4320  -70.1660   -5.0830 O         1 <0>         0.0000
  31980 WAT       -33.4320  -70.1660   -4.8330 O         1 <0>         0.0000
  31981 WAT       -33.4320  -70.1660   -4.5830 O         1 <0>         0.0000
  31982 WAT       -33.4320  -70.1660   -4.3330 O         1 <0>         0.0000
  31983 WAT       -33.4320  -70.1660   -4.0830 O         1 <0>         0.0000
  31984 WAT       -33.4320  -70.1660   -3.8330 O         1 <0>         0.0000
  31985 WAT       -33.4320  -70.1660   -3.5830 O         1 <0>         0.0000
  31986 WAT       -33.4320  -70.1660   -3.3330 O         1 <0>         0.0000
  31987 WAT       -33.4320  -70.1660   -3.0830 O         1 <0>         0.0000
  31988 WAT       -33.4320  -70.1660   -2.8330 O         1 <0>         0.0000
  31989 WAT       -33.4320  -70.1660   -2.5830 O         1 <0>         0.0000
  31990 WAT       -33.4320  -70.1660   -2.3330 O         1 <0>         0.0000
  31991 WAT       -33.4320  -70.1660   -2.0830 O         1 <0>         0.0000
  31992 WAT       -33.4320  -70.1660   -1.8330 O         1 <0>         0.0000
  31993 WAT       -33.4320  -70.1660   -1.5830 O         1 <0>         0.0000
  31994 WAT       -33.4320  -70.1660   -1.3330 O         1 <0>         0.0000
  31995 WAT       -33.4320  -70.1660   -1.0830 O         1 <0>         0.0000
  31996 WAT       -33.4320  -70.1660   -0.8330 O         1 <0>         0.0000
  31997 WAT       -33.4320  -70.1660   -0.5830 O         1 <0>         0.0000
  31998 WAT       -33.4320  -70.1660   -0.3330 O         1 <0>         0.0000
  31999 WAT       -33.4320  -70.1660   -0.0830 O         1 <0>         0.0000
  32000 WAT       -33.4320  -69.9160   -9.8330 O         1 <0>         0.0000
  32001 WAT       -33.4320  -69.9160   -9.5830 O         1 <0>         0.0000
  32002 WAT       -33.4320  -69.9160   -9.3330 O         1 <0>         0.0000
  32003 WAT       -33.4320  -69.9160   -9.0830 O         1 <0>         0.0000
  32004 WAT       -33.4320  -69.9160   -8.8330 O         1 <0>         0.0000
  32005 WAT       -33.4320  -69.9160   -8.5830 O         1 <0>         0.0000
  32006 WAT       -33.4320  -69.9160   -8.3330 O         1 <0>         0.0000
  32007 WAT       -33.4320  -69.9160   -8.0830 O         1 <0>         0.0003
  32008 WAT       -33.4320  -69.9160   -7.8330 O         1 <0>         0.0013
  32009 WAT       -33.4320  -69.9160   -7.5830 O         1 <0>         0.0043
  32010 WAT       -33.4320  -69.9160   -7.3330 O         1 <0>         0.0118
  32011 WAT       -33.4320  -69.9160   -7.0830 O         1 <0>         0.0288
  32012 WAT       -33.4320  -69.9160   -6.8330 O         1 <0>         0.0586
  32013 WAT       -33.4320  -69.9160   -6.5830 O         1 <0>         0.0898
  32014 WAT       -33.4320  -69.9160   -6.3330 O         1 <0>         0.0955
  32015 WAT       -33.4320  -69.9160   -6.0830 O         1 <0>         0.0671
  32016 WAT       -33.4320  -69.9160   -5.8330 O         1 <0>         0.0298
  32017 WAT       -33.4320  -69.9160   -5.5830 O         1 <0>         0.0073
  32018 WAT       -33.4320  -69.9160   -5.3330 O         1 <0>         0.0007
  32019 WAT       -33.4320  -69.9160   -5.0830 O         1 <0>         0.0000
  32020 WAT       -33.4320  -69.9160   -4.8330 O         1 <0>         0.0000
  32021 WAT       -33.4320  -69.9160   -4.5830 O         1 <0>         0.0000
  32022 WAT       -33.4320  -69.9160   -4.3330 O         1 <0>         0.0000
  32023 WAT       -33.4320  -69.9160   -4.0830 O         1 <0>         0.0000
  32024 WAT       -33.4320  -69.9160   -3.8330 O         1 <0>         0.0000
  32025 WAT       -33.4320  -69.9160   -3.5830 O         1 <0>         0.0000
  32026 WAT       -33.4320  -69.9160   -3.3330 O         1 <0>         0.0000
  32027 WAT       -33.4320  -69.9160   -3.0830 O         1 <0>         0.0000
  32028 WAT       -33.4320  -69.9160   -2.8330 O         1 <0>         0.0000
  32029 WAT       -33.4320  -69.9160   -2.5830 O         1 <0>         0.0000
  32030 WAT       -33.4320  -69.9160   -2.3330 O         1 <0>         0.0000
  32031 WAT       -33.4320  -69.9160   -2.0830 O         1 <0>         0.0000
  32032 WAT       -33.4320  -69.9160   -1.8330 O         1 <0>         0.0000
  32033 WAT       -33.4320  -69.9160   -1.5830 O         1 <0>         0.0000
  32034 WAT       -33.4320  -69.9160   -1.3330 O         1 <0>         0.0000
  32035 WAT       -33.4320  -69.9160   -1.0830 O         1 <0>         0.0000
  32036 WAT       -33.4320  -69.9160   -0.8330 O         1 <0>         0.0000
  32037 WAT       -33.4320  -69.9160   -0.5830 O         1 <0>         0.0000
  32038 WAT       -33.4320  -69.9160   -0.3330 O         1 <0>         0.0000
  32039 WAT       -33.4320  -69.9160   -0.0830 O         1 <0>         0.0000
  32040 WAT       -33.4320  -69.6660   -9.8330 O         1 <0>         0.0000
  32041 WAT       -33.4320  -69.6660   -9.5830 O         1 <0>         0.0000
  32042 WAT       -33.4320  -69.6660   -9.3330 O         1 <0>         0.0000
  32043 WAT       -33.4320  -69.6660   -9.0830 O         1 <0>         0.0000
  32044 WAT       -33.4320  -69.6660   -8.8330 O         1 <0>         0.0000
  32045 WAT       -33.4320  -69.6660   -8.5830 O         1 <0>         0.0000
  32046 WAT       -33.4320  -69.6660   -8.3330 O         1 <0>         0.0000
  32047 WAT       -33.4320  -69.6660   -8.0830 O         1 <0>         0.0001
  32048 WAT       -33.4320  -69.6660   -7.8330 O         1 <0>         0.0004
  32049 WAT       -33.4320  -69.6660   -7.5830 O         1 <0>         0.0015
  32050 WAT       -33.4320  -69.6660   -7.3330 O         1 <0>         0.0044
  32051 WAT       -33.4320  -69.6660   -7.0830 O         1 <0>         0.0117
  32052 WAT       -33.4320  -69.6660   -6.8330 O         1 <0>         0.0253
  32053 WAT       -33.4320  -69.6660   -6.5830 O         1 <0>         0.0397
  32054 WAT       -33.4320  -69.6660   -6.3330 O         1 <0>         0.0423
  32055 WAT       -33.4320  -69.6660   -6.0830 O         1 <0>         0.0293
  32056 WAT       -33.4320  -69.6660   -5.8330 O         1 <0>         0.0124
  32057 WAT       -33.4320  -69.6660   -5.5830 O         1 <0>         0.0028
  32058 WAT       -33.4320  -69.6660   -5.3330 O         1 <0>         0.0002
  32059 WAT       -33.4320  -69.6660   -5.0830 O         1 <0>         0.0000
  32060 WAT       -33.4320  -69.6660   -4.8330 O         1 <0>         0.0000
  32061 WAT       -33.4320  -69.6660   -4.5830 O         1 <0>         0.0000
  32062 WAT       -33.4320  -69.6660   -4.3330 O         1 <0>         0.0000
  32063 WAT       -33.4320  -69.6660   -4.0830 O         1 <0>         0.0000
  32064 WAT       -33.4320  -69.6660   -3.8330 O         1 <0>         0.0000
  32065 WAT       -33.4320  -69.6660   -3.5830 O         1 <0>         0.0000
  32066 WAT       -33.4320  -69.6660   -3.3330 O         1 <0>         0.0000
  32067 WAT       -33.4320  -69.6660   -3.0830 O         1 <0>         0.0000
  32068 WAT       -33.4320  -69.6660   -2.8330 O         1 <0>         0.0000
  32069 WAT       -33.4320  -69.6660   -2.5830 O         1 <0>         0.0000
  32070 WAT       -33.4320  -69.6660   -2.3330 O         1 <0>         0.0000
  32071 WAT       -33.4320  -69.6660   -2.0830 O         1 <0>         0.0000
  32072 WAT       -33.4320  -69.6660   -1.8330 O         1 <0>         0.0000
  32073 WAT       -33.4320  -69.6660   -1.5830 O         1 <0>         0.0000
  32074 WAT       -33.4320  -69.6660   -1.3330 O         1 <0>         0.0000
  32075 WAT       -33.4320  -69.6660   -1.0830 O         1 <0>         0.0000
  32076 WAT       -33.4320  -69.6660   -0.8330 O         1 <0>         0.0000
  32077 WAT       -33.4320  -69.6660   -0.5830 O         1 <0>         0.0000
  32078 WAT       -33.4320  -69.6660   -0.3330 O         1 <0>         0.0000
  32079 WAT       -33.4320  -69.6660   -0.0830 O         1 <0>         0.0000
  32080 WAT       -33.4320  -69.4160   -9.8330 O         1 <0>         0.0000
  32081 WAT       -33.4320  -69.4160   -9.5830 O         1 <0>         0.0000
  32082 WAT       -33.4320  -69.4160   -9.3330 O         1 <0>         0.0000
  32083 WAT       -33.4320  -69.4160   -9.0830 O         1 <0>         0.0000
  32084 WAT       -33.4320  -69.4160   -8.8330 O         1 <0>         0.0000
  32085 WAT       -33.4320  -69.4160   -8.5830 O         1 <0>         0.0000
  32086 WAT       -33.4320  -69.4160   -8.3330 O         1 <0>         0.0000
  32087 WAT       -33.4320  -69.4160   -8.0830 O         1 <0>         0.0000
  32088 WAT       -33.4320  -69.4160   -7.8330 O         1 <0>         0.0001
  32089 WAT       -33.4320  -69.4160   -7.5830 O         1 <0>         0.0003
  32090 WAT       -33.4320  -69.4160   -7.3330 O         1 <0>         0.0010
  32091 WAT       -33.4320  -69.4160   -7.0830 O         1 <0>         0.0029
  32092 WAT       -33.4320  -69.4160   -6.8330 O         1 <0>         0.0069
  32093 WAT       -33.4320  -69.4160   -6.5830 O         1 <0>         0.0114
  32094 WAT       -33.4320  -69.4160   -6.3330 O         1 <0>         0.0123
  32095 WAT       -33.4320  -69.4160   -6.0830 O         1 <0>         0.0083
  32096 WAT       -33.4320  -69.4160   -5.8330 O         1 <0>         0.0032
  32097 WAT       -33.4320  -69.4160   -5.5830 O         1 <0>         0.0006
  32098 WAT       -33.4320  -69.4160   -5.3330 O         1 <0>         0.0000
  32099 WAT       -33.4320  -69.4160   -5.0830 O         1 <0>         0.0000
  32100 WAT       -33.4320  -69.4160   -4.8330 O         1 <0>         0.0000
  32101 WAT       -33.4320  -69.4160   -4.5830 O         1 <0>         0.0000
  32102 WAT       -33.4320  -69.4160   -4.3330 O         1 <0>         0.0000
  32103 WAT       -33.4320  -69.4160   -4.0830 O         1 <0>         0.0000
  32104 WAT       -33.4320  -69.4160   -3.8330 O         1 <0>         0.0000
  32105 WAT       -33.4320  -69.4160   -3.5830 O         1 <0>         0.0000
  32106 WAT       -33.4320  -69.4160   -3.3330 O         1 <0>         0.0000
  32107 WAT       -33.4320  -69.4160   -3.0830 O         1 <0>         0.0000
  32108 WAT       -33.4320  -69.4160   -2.8330 O         1 <0>         0.0000
  32109 WAT       -33.4320  -69.4160   -2.5830 O         1 <0>         0.0000
  32110 WAT       -33.4320  -69.4160   -2.3330 O         1 <0>         0.0000
  32111 WAT       -33.4320  -69.4160   -2.0830 O         1 <0>         0.0000
  32112 WAT       -33.4320  -69.4160   -1.8330 O         1 <0>         0.0000
  32113 WAT       -33.4320  -69.4160   -1.5830 O         1 <0>         0.0000
  32114 WAT       -33.4320  -69.4160   -1.3330 O         1 <0>         0.0000
  32115 WAT       -33.4320  -69.4160   -1.0830 O         1 <0>         0.0000
  32116 WAT       -33.4320  -69.4160   -0.8330 O         1 <0>         0.0000
  32117 WAT       -33.4320  -69.4160   -0.5830 O         1 <0>         0.0000
  32118 WAT       -33.4320  -69.4160   -0.3330 O         1 <0>         0.0000
  32119 WAT       -33.4320  -69.4160   -0.0830 O         1 <0>         0.0000
  32120 WAT       -33.4320  -69.1660   -9.8330 O         1 <0>         0.0000
  32121 WAT       -33.4320  -69.1660   -9.5830 O         1 <0>         0.0000
  32122 WAT       -33.4320  -69.1660   -9.3330 O         1 <0>         0.0000
  32123 WAT       -33.4320  -69.1660   -9.0830 O         1 <0>         0.0000
  32124 WAT       -33.4320  -69.1660   -8.8330 O         1 <0>         0.0000
  32125 WAT       -33.4320  -69.1660   -8.5830 O         1 <0>         0.0000
  32126 WAT       -33.4320  -69.1660   -8.3330 O         1 <0>         0.0000
  32127 WAT       -33.4320  -69.1660   -8.0830 O         1 <0>         0.0000
  32128 WAT       -33.4320  -69.1660   -7.8330 O         1 <0>         0.0000
  32129 WAT       -33.4320  -69.1660   -7.5830 O         1 <0>         0.0000
  32130 WAT       -33.4320  -69.1660   -7.3330 O         1 <0>         0.0001
  32131 WAT       -33.4320  -69.1660   -7.0830 O         1 <0>         0.0004
  32132 WAT       -33.4320  -69.1660   -6.8330 O         1 <0>         0.0010
  32133 WAT       -33.4320  -69.1660   -6.5830 O         1 <0>         0.0019
  32134 WAT       -33.4320  -69.1660   -6.3330 O         1 <0>         0.0021
  32135 WAT       -33.4320  -69.1660   -6.0830 O         1 <0>         0.0014
  32136 WAT       -33.4320  -69.1660   -5.8330 O         1 <0>         0.0005
  32137 WAT       -33.4320  -69.1660   -5.5830 O         1 <0>         0.0001
  32138 WAT       -33.4320  -69.1660   -5.3330 O         1 <0>         0.0000
  32139 WAT       -33.4320  -69.1660   -5.0830 O         1 <0>         0.0000
  32140 WAT       -33.4320  -69.1660   -4.8330 O         1 <0>         0.0000
  32141 WAT       -33.4320  -69.1660   -4.5830 O         1 <0>         0.0000
  32142 WAT       -33.4320  -69.1660   -4.3330 O         1 <0>         0.0000
  32143 WAT       -33.4320  -69.1660   -4.0830 O         1 <0>         0.0000
  32144 WAT       -33.4320  -69.1660   -3.8330 O         1 <0>         0.0000
  32145 WAT       -33.4320  -69.1660   -3.5830 O         1 <0>         0.0000
  32146 WAT       -33.4320  -69.1660   -3.3330 O         1 <0>         0.0000
  32147 WAT       -33.4320  -69.1660   -3.0830 O         1 <0>         0.0000
  32148 WAT       -33.4320  -69.1660   -2.8330 O         1 <0>         0.0000
  32149 WAT       -33.4320  -69.1660   -2.5830 O         1 <0>         0.0000
  32150 WAT       -33.4320  -69.1660   -2.3330 O         1 <0>         0.0000
  32151 WAT       -33.4320  -69.1660   -2.0830 O         1 <0>         0.0000
  32152 WAT       -33.4320  -69.1660   -1.8330 O         1 <0>         0.0000
  32153 WAT       -33.4320  -69.1660   -1.5830 O         1 <0>         0.0000
  32154 WAT       -33.4320  -69.1660   -1.3330 O         1 <0>         0.0000
  32155 WAT       -33.4320  -69.1660   -1.0830 O         1 <0>         0.0000
  32156 WAT       -33.4320  -69.1660   -0.8330 O         1 <0>         0.0000
  32157 WAT       -33.4320  -69.1660   -0.5830 O         1 <0>         0.0000
  32158 WAT       -33.4320  -69.1660   -0.3330 O         1 <0>         0.0000
  32159 WAT       -33.4320  -69.1660   -0.0830 O         1 <0>         0.0000
  32160 WAT       -33.4320  -68.9160   -9.8330 O         1 <0>         0.0000
  32161 WAT       -33.4320  -68.9160   -9.5830 O         1 <0>         0.0000
  32162 WAT       -33.4320  -68.9160   -9.3330 O         1 <0>         0.0000
  32163 WAT       -33.4320  -68.9160   -9.0830 O         1 <0>         0.0000
  32164 WAT       -33.4320  -68.9160   -8.8330 O         1 <0>         0.0000
  32165 WAT       -33.4320  -68.9160   -8.5830 O         1 <0>         0.0000
  32166 WAT       -33.4320  -68.9160   -8.3330 O         1 <0>         0.0000
  32167 WAT       -33.4320  -68.9160   -8.0830 O         1 <0>         0.0000
  32168 WAT       -33.4320  -68.9160   -7.8330 O         1 <0>         0.0000
  32169 WAT       -33.4320  -68.9160   -7.5830 O         1 <0>         0.0000
  32170 WAT       -33.4320  -68.9160   -7.3330 O         1 <0>         0.0000
  32171 WAT       -33.4320  -68.9160   -7.0830 O         1 <0>         0.0000
  32172 WAT       -33.4320  -68.9160   -6.8330 O         1 <0>         0.0001
  32173 WAT       -33.4320  -68.9160   -6.5830 O         1 <0>         0.0002
  32174 WAT       -33.4320  -68.9160   -6.3330 O         1 <0>         0.0002
  32175 WAT       -33.4320  -68.9160   -6.0830 O         1 <0>         0.0001
  32176 WAT       -33.4320  -68.9160   -5.8330 O         1 <0>         0.0000
  32177 WAT       -33.4320  -68.9160   -5.5830 O         1 <0>         0.0000
  32178 WAT       -33.4320  -68.9160   -5.3330 O         1 <0>         0.0000
  32179 WAT       -33.4320  -68.9160   -5.0830 O         1 <0>         0.0000
  32180 WAT       -33.4320  -68.9160   -4.8330 O         1 <0>         0.0000
  32181 WAT       -33.4320  -68.9160   -4.5830 O         1 <0>         0.0000
  32182 WAT       -33.4320  -68.9160   -4.3330 O         1 <0>         0.0000
  32183 WAT       -33.4320  -68.9160   -4.0830 O         1 <0>         0.0000
  32184 WAT       -33.4320  -68.9160   -3.8330 O         1 <0>         0.0000
  32185 WAT       -33.4320  -68.9160   -3.5830 O         1 <0>         0.0000
  32186 WAT       -33.4320  -68.9160   -3.3330 O         1 <0>         0.0000
  32187 WAT       -33.4320  -68.9160   -3.0830 O         1 <0>         0.0000
  32188 WAT       -33.4320  -68.9160   -2.8330 O         1 <0>         0.0000
  32189 WAT       -33.4320  -68.9160   -2.5830 O         1 <0>         0.0000
  32190 WAT       -33.4320  -68.9160   -2.3330 O         1 <0>         0.0000
  32191 WAT       -33.4320  -68.9160   -2.0830 O         1 <0>         0.0000
  32192 WAT       -33.4320  -68.9160   -1.8330 O         1 <0>         0.0000
  32193 WAT       -33.4320  -68.9160   -1.5830 O         1 <0>         0.0000
  32194 WAT       -33.4320  -68.9160   -1.3330 O         1 <0>         0.0000
  32195 WAT       -33.4320  -68.9160   -1.0830 O         1 <0>         0.0000
  32196 WAT       -33.4320  -68.9160   -0.8330 O         1 <0>         0.0000
  32197 WAT       -33.4320  -68.9160   -0.5830 O         1 <0>         0.0000
  32198 WAT       -33.4320  -68.9160   -0.3330 O         1 <0>         0.0000
  32199 WAT       -33.4320  -68.9160   -0.0830 O         1 <0>         0.0000
  32200 WAT       -33.1820  -77.4160   -9.8330 O         1 <0>         0.0000
  32201 WAT       -33.1820  -77.4160   -9.5830 O         1 <0>         0.0000
  32202 WAT       -33.1820  -77.4160   -9.3330 O         1 <0>         0.0000
  32203 WAT       -33.1820  -77.4160   -9.0830 O         1 <0>         0.0000
  32204 WAT       -33.1820  -77.4160   -8.8330 O         1 <0>         0.0000
  32205 WAT       -33.1820  -77.4160   -8.5830 O         1 <0>         0.0000
  32206 WAT       -33.1820  -77.4160   -8.3330 O         1 <0>         0.0000
  32207 WAT       -33.1820  -77.4160   -8.0830 O         1 <0>         0.0000
  32208 WAT       -33.1820  -77.4160   -7.8330 O         1 <0>         0.0000
  32209 WAT       -33.1820  -77.4160   -7.5830 O         1 <0>         0.0000
  32210 WAT       -33.1820  -77.4160   -7.3330 O         1 <0>         0.0000
  32211 WAT       -33.1820  -77.4160   -7.0830 O         1 <0>         0.0000
  32212 WAT       -33.1820  -77.4160   -6.8330 O         1 <0>         0.0000
  32213 WAT       -33.1820  -77.4160   -6.5830 O         1 <0>         0.0000
  32214 WAT       -33.1820  -77.4160   -6.3330 O         1 <0>         0.0000
  32215 WAT       -33.1820  -77.4160   -6.0830 O         1 <0>         0.0000
  32216 WAT       -33.1820  -77.4160   -5.8330 O         1 <0>         0.0000
  32217 WAT       -33.1820  -77.4160   -5.5830 O         1 <0>         0.0000
  32218 WAT       -33.1820  -77.4160   -5.3330 O         1 <0>         0.0000
  32219 WAT       -33.1820  -77.4160   -5.0830 O         1 <0>         0.0000
  32220 WAT       -33.1820  -77.4160   -4.8330 O         1 <0>         0.0000
  32221 WAT       -33.1820  -77.4160   -4.5830 O         1 <0>         0.0000
  32222 WAT       -33.1820  -77.4160   -4.3330 O         1 <0>         0.0000
  32223 WAT       -33.1820  -77.4160   -4.0830 O         1 <0>         0.0000
  32224 WAT       -33.1820  -77.4160   -3.8330 O         1 <0>         0.0000
  32225 WAT       -33.1820  -77.4160   -3.5830 O         1 <0>         0.0000
  32226 WAT       -33.1820  -77.4160   -3.3330 O         1 <0>         0.0000
  32227 WAT       -33.1820  -77.4160   -3.0830 O         1 <0>         0.0000
  32228 WAT       -33.1820  -77.4160   -2.8330 O         1 <0>         0.0000
  32229 WAT       -33.1820  -77.4160   -2.5830 O         1 <0>         0.0000
  32230 WAT       -33.1820  -77.4160   -2.3330 O         1 <0>         0.0000
  32231 WAT       -33.1820  -77.4160   -2.0830 O         1 <0>         0.0000
  32232 WAT       -33.1820  -77.4160   -1.8330 O         1 <0>         0.0000
  32233 WAT       -33.1820  -77.4160   -1.5830 O         1 <0>         0.0000
  32234 WAT       -33.1820  -77.4160   -1.3330 O         1 <0>         0.0000
  32235 WAT       -33.1820  -77.4160   -1.0830 O         1 <0>         0.0000
  32236 WAT       -33.1820  -77.4160   -0.8330 O         1 <0>         0.0000
  32237 WAT       -33.1820  -77.4160   -0.5830 O         1 <0>         0.0000
  32238 WAT       -33.1820  -77.4160   -0.3330 O         1 <0>         0.0000
  32239 WAT       -33.1820  -77.4160   -0.0830 O         1 <0>         0.0000
  32240 WAT       -33.1820  -77.1660   -9.8330 O         1 <0>         0.0000
  32241 WAT       -33.1820  -77.1660   -9.5830 O         1 <0>         0.0000
  32242 WAT       -33.1820  -77.1660   -9.3330 O         1 <0>         0.0000
  32243 WAT       -33.1820  -77.1660   -9.0830 O         1 <0>         0.0000
  32244 WAT       -33.1820  -77.1660   -8.8330 O         1 <0>         0.0000
  32245 WAT       -33.1820  -77.1660   -8.5830 O         1 <0>         0.0000
  32246 WAT       -33.1820  -77.1660   -8.3330 O         1 <0>         0.0000
  32247 WAT       -33.1820  -77.1660   -8.0830 O         1 <0>         0.0000
  32248 WAT       -33.1820  -77.1660   -7.8330 O         1 <0>         0.0000
  32249 WAT       -33.1820  -77.1660   -7.5830 O         1 <0>         0.0000
  32250 WAT       -33.1820  -77.1660   -7.3330 O         1 <0>         0.0000
  32251 WAT       -33.1820  -77.1660   -7.0830 O         1 <0>         0.0000
  32252 WAT       -33.1820  -77.1660   -6.8330 O         1 <0>         0.0000
  32253 WAT       -33.1820  -77.1660   -6.5830 O         1 <0>         0.0000
  32254 WAT       -33.1820  -77.1660   -6.3330 O         1 <0>         0.0000
  32255 WAT       -33.1820  -77.1660   -6.0830 O         1 <0>         0.0000
  32256 WAT       -33.1820  -77.1660   -5.8330 O         1 <0>         0.0000
  32257 WAT       -33.1820  -77.1660   -5.5830 O         1 <0>         0.0000
  32258 WAT       -33.1820  -77.1660   -5.3330 O         1 <0>         0.0000
  32259 WAT       -33.1820  -77.1660   -5.0830 O         1 <0>         0.0000
  32260 WAT       -33.1820  -77.1660   -4.8330 O         1 <0>         0.0000
  32261 WAT       -33.1820  -77.1660   -4.5830 O         1 <0>         0.0000
  32262 WAT       -33.1820  -77.1660   -4.3330 O         1 <0>         0.0000
  32263 WAT       -33.1820  -77.1660   -4.0830 O         1 <0>         0.0000
  32264 WAT       -33.1820  -77.1660   -3.8330 O         1 <0>         0.0000
  32265 WAT       -33.1820  -77.1660   -3.5830 O         1 <0>         0.0000
  32266 WAT       -33.1820  -77.1660   -3.3330 O         1 <0>         0.0000
  32267 WAT       -33.1820  -77.1660   -3.0830 O         1 <0>         0.0000
  32268 WAT       -33.1820  -77.1660   -2.8330 O         1 <0>         0.0000
  32269 WAT       -33.1820  -77.1660   -2.5830 O         1 <0>         0.0000
  32270 WAT       -33.1820  -77.1660   -2.3330 O         1 <0>         0.0000
  32271 WAT       -33.1820  -77.1660   -2.0830 O         1 <0>         0.0000
  32272 WAT       -33.1820  -77.1660   -1.8330 O         1 <0>         0.0000
  32273 WAT       -33.1820  -77.1660   -1.5830 O         1 <0>         0.0000
  32274 WAT       -33.1820  -77.1660   -1.3330 O         1 <0>         0.0000
  32275 WAT       -33.1820  -77.1660   -1.0830 O         1 <0>         0.0000
  32276 WAT       -33.1820  -77.1660   -0.8330 O         1 <0>         0.0000
  32277 WAT       -33.1820  -77.1660   -0.5830 O         1 <0>         0.0000
  32278 WAT       -33.1820  -77.1660   -0.3330 O         1 <0>         0.0000
  32279 WAT       -33.1820  -77.1660   -0.0830 O         1 <0>         0.0000
  32280 WAT       -33.1820  -76.9160   -9.8330 O         1 <0>         0.0000
  32281 WAT       -33.1820  -76.9160   -9.5830 O         1 <0>         0.0000
  32282 WAT       -33.1820  -76.9160   -9.3330 O         1 <0>         0.0000
  32283 WAT       -33.1820  -76.9160   -9.0830 O         1 <0>         0.0000
  32284 WAT       -33.1820  -76.9160   -8.8330 O         1 <0>         0.0000
  32285 WAT       -33.1820  -76.9160   -8.5830 O         1 <0>         0.0000
  32286 WAT       -33.1820  -76.9160   -8.3330 O         1 <0>         0.0000
  32287 WAT       -33.1820  -76.9160   -8.0830 O         1 <0>         0.0000
  32288 WAT       -33.1820  -76.9160   -7.8330 O         1 <0>         0.0000
  32289 WAT       -33.1820  -76.9160   -7.5830 O         1 <0>         0.0000
  32290 WAT       -33.1820  -76.9160   -7.3330 O         1 <0>         0.0000
  32291 WAT       -33.1820  -76.9160   -7.0830 O         1 <0>         0.0000
  32292 WAT       -33.1820  -76.9160   -6.8330 O         1 <0>         0.0000
  32293 WAT       -33.1820  -76.9160   -6.5830 O         1 <0>         0.0000
  32294 WAT       -33.1820  -76.9160   -6.3330 O         1 <0>         0.0000
  32295 WAT       -33.1820  -76.9160   -6.0830 O         1 <0>         0.0000
  32296 WAT       -33.1820  -76.9160   -5.8330 O         1 <0>         0.0000
  32297 WAT       -33.1820  -76.9160   -5.5830 O         1 <0>         0.0000
  32298 WAT       -33.1820  -76.9160   -5.3330 O         1 <0>         0.0000
  32299 WAT       -33.1820  -76.9160   -5.0830 O         1 <0>         0.0000
  32300 WAT       -33.1820  -76.9160   -4.8330 O         1 <0>         0.0000
  32301 WAT       -33.1820  -76.9160   -4.5830 O         1 <0>         0.0000
  32302 WAT       -33.1820  -76.9160   -4.3330 O         1 <0>         0.0000
  32303 WAT       -33.1820  -76.9160   -4.0830 O         1 <0>         0.0000
  32304 WAT       -33.1820  -76.9160   -3.8330 O         1 <0>         0.0000
  32305 WAT       -33.1820  -76.9160   -3.5830 O         1 <0>         0.0000
  32306 WAT       -33.1820  -76.9160   -3.3330 O         1 <0>         0.0000
  32307 WAT       -33.1820  -76.9160   -3.0830 O         1 <0>         0.0000
  32308 WAT       -33.1820  -76.9160   -2.8330 O         1 <0>         0.0000
  32309 WAT       -33.1820  -76.9160   -2.5830 O         1 <0>         0.0000
  32310 WAT       -33.1820  -76.9160   -2.3330 O         1 <0>         0.0000
  32311 WAT       -33.1820  -76.9160   -2.0830 O         1 <0>         0.0000
  32312 WAT       -33.1820  -76.9160   -1.8330 O         1 <0>         0.0000
  32313 WAT       -33.1820  -76.9160   -1.5830 O         1 <0>         0.0000
  32314 WAT       -33.1820  -76.9160   -1.3330 O         1 <0>         0.0000
  32315 WAT       -33.1820  -76.9160   -1.0830 O         1 <0>         0.0000
  32316 WAT       -33.1820  -76.9160   -0.8330 O         1 <0>         0.0000
  32317 WAT       -33.1820  -76.9160   -0.5830 O         1 <0>         0.0000
  32318 WAT       -33.1820  -76.9160   -0.3330 O         1 <0>         0.0000
  32319 WAT       -33.1820  -76.9160   -0.0830 O         1 <0>         0.0000
  32320 WAT       -33.1820  -76.6660   -9.8330 O         1 <0>         0.0000
  32321 WAT       -33.1820  -76.6660   -9.5830 O         1 <0>         0.0000
  32322 WAT       -33.1820  -76.6660   -9.3330 O         1 <0>         0.0000
  32323 WAT       -33.1820  -76.6660   -9.0830 O         1 <0>         0.0000
  32324 WAT       -33.1820  -76.6660   -8.8330 O         1 <0>         0.0000
  32325 WAT       -33.1820  -76.6660   -8.5830 O         1 <0>         0.0000
  32326 WAT       -33.1820  -76.6660   -8.3330 O         1 <0>         0.0000
  32327 WAT       -33.1820  -76.6660   -8.0830 O         1 <0>         0.0000
  32328 WAT       -33.1820  -76.6660   -7.8330 O         1 <0>         0.0000
  32329 WAT       -33.1820  -76.6660   -7.5830 O         1 <0>         0.0000
  32330 WAT       -33.1820  -76.6660   -7.3330 O         1 <0>         0.0000
  32331 WAT       -33.1820  -76.6660   -7.0830 O         1 <0>         0.0000
  32332 WAT       -33.1820  -76.6660   -6.8330 O         1 <0>         0.0000
  32333 WAT       -33.1820  -76.6660   -6.5830 O         1 <0>         0.0000
  32334 WAT       -33.1820  -76.6660   -6.3330 O         1 <0>         0.0000
  32335 WAT       -33.1820  -76.6660   -6.0830 O         1 <0>         0.0000
  32336 WAT       -33.1820  -76.6660   -5.8330 O         1 <0>         0.0000
  32337 WAT       -33.1820  -76.6660   -5.5830 O         1 <0>         0.0000
  32338 WAT       -33.1820  -76.6660   -5.3330 O         1 <0>         0.0000
  32339 WAT       -33.1820  -76.6660   -5.0830 O         1 <0>         0.0000
  32340 WAT       -33.1820  -76.6660   -4.8330 O         1 <0>         0.0000
  32341 WAT       -33.1820  -76.6660   -4.5830 O         1 <0>         0.0000
  32342 WAT       -33.1820  -76.6660   -4.3330 O         1 <0>         0.0000
  32343 WAT       -33.1820  -76.6660   -4.0830 O         1 <0>         0.0000
  32344 WAT       -33.1820  -76.6660   -3.8330 O         1 <0>         0.0000
  32345 WAT       -33.1820  -76.6660   -3.5830 O         1 <0>         0.0000
  32346 WAT       -33.1820  -76.6660   -3.3330 O         1 <0>         0.0000
  32347 WAT       -33.1820  -76.6660   -3.0830 O         1 <0>         0.0000
  32348 WAT       -33.1820  -76.6660   -2.8330 O         1 <0>         0.0000
  32349 WAT       -33.1820  -76.6660   -2.5830 O         1 <0>         0.0000
  32350 WAT       -33.1820  -76.6660   -2.3330 O         1 <0>         0.0000
  32351 WAT       -33.1820  -76.6660   -2.0830 O         1 <0>         0.0000
  32352 WAT       -33.1820  -76.6660   -1.8330 O         1 <0>         0.0000
  32353 WAT       -33.1820  -76.6660   -1.5830 O         1 <0>         0.0000
  32354 WAT       -33.1820  -76.6660   -1.3330 O         1 <0>         0.0000
  32355 WAT       -33.1820  -76.6660   -1.0830 O         1 <0>         0.0000
  32356 WAT       -33.1820  -76.6660   -0.8330 O         1 <0>         0.0000
  32357 WAT       -33.1820  -76.6660   -0.5830 O         1 <0>         0.0000
  32358 WAT       -33.1820  -76.6660   -0.3330 O         1 <0>         0.0000
  32359 WAT       -33.1820  -76.6660   -0.0830 O         1 <0>         0.0000
  32360 WAT       -33.1820  -76.4160   -9.8330 O         1 <0>         0.0000
  32361 WAT       -33.1820  -76.4160   -9.5830 O         1 <0>         0.0000
  32362 WAT       -33.1820  -76.4160   -9.3330 O         1 <0>         0.0000
  32363 WAT       -33.1820  -76.4160   -9.0830 O         1 <0>         0.0000
  32364 WAT       -33.1820  -76.4160   -8.8330 O         1 <0>         0.0000
  32365 WAT       -33.1820  -76.4160   -8.5830 O         1 <0>         0.0000
  32366 WAT       -33.1820  -76.4160   -8.3330 O         1 <0>         0.0000
  32367 WAT       -33.1820  -76.4160   -8.0830 O         1 <0>         0.0000
  32368 WAT       -33.1820  -76.4160   -7.8330 O         1 <0>         0.0000
  32369 WAT       -33.1820  -76.4160   -7.5830 O         1 <0>         0.0000
  32370 WAT       -33.1820  -76.4160   -7.3330 O         1 <0>         0.0000
  32371 WAT       -33.1820  -76.4160   -7.0830 O         1 <0>         0.0000
  32372 WAT       -33.1820  -76.4160   -6.8330 O         1 <0>         0.0000
  32373 WAT       -33.1820  -76.4160   -6.5830 O         1 <0>         0.0000
  32374 WAT       -33.1820  -76.4160   -6.3330 O         1 <0>         0.0000
  32375 WAT       -33.1820  -76.4160   -6.0830 O         1 <0>         0.0000
  32376 WAT       -33.1820  -76.4160   -5.8330 O         1 <0>         0.0000
  32377 WAT       -33.1820  -76.4160   -5.5830 O         1 <0>         0.0000
  32378 WAT       -33.1820  -76.4160   -5.3330 O         1 <0>         0.0000
  32379 WAT       -33.1820  -76.4160   -5.0830 O         1 <0>         0.0000
  32380 WAT       -33.1820  -76.4160   -4.8330 O         1 <0>         0.0000
  32381 WAT       -33.1820  -76.4160   -4.5830 O         1 <0>         0.0000
  32382 WAT       -33.1820  -76.4160   -4.3330 O         1 <0>         0.0000
  32383 WAT       -33.1820  -76.4160   -4.0830 O         1 <0>         0.0000
  32384 WAT       -33.1820  -76.4160   -3.8330 O         1 <0>         0.0000
  32385 WAT       -33.1820  -76.4160   -3.5830 O         1 <0>         0.0000
  32386 WAT       -33.1820  -76.4160   -3.3330 O         1 <0>         0.0000
  32387 WAT       -33.1820  -76.4160   -3.0830 O         1 <0>         0.0000
  32388 WAT       -33.1820  -76.4160   -2.8330 O         1 <0>         0.0000
  32389 WAT       -33.1820  -76.4160   -2.5830 O         1 <0>         0.0000
  32390 WAT       -33.1820  -76.4160   -2.3330 O         1 <0>         0.0000
  32391 WAT       -33.1820  -76.4160   -2.0830 O         1 <0>         0.0000
  32392 WAT       -33.1820  -76.4160   -1.8330 O         1 <0>         0.0000
  32393 WAT       -33.1820  -76.4160   -1.5830 O         1 <0>         0.0000
  32394 WAT       -33.1820  -76.4160   -1.3330 O         1 <0>         0.0000
  32395 WAT       -33.1820  -76.4160   -1.0830 O         1 <0>         0.0000
  32396 WAT       -33.1820  -76.4160   -0.8330 O         1 <0>         0.0000
  32397 WAT       -33.1820  -76.4160   -0.5830 O         1 <0>         0.0000
  32398 WAT       -33.1820  -76.4160   -0.3330 O         1 <0>         0.0000
  32399 WAT       -33.1820  -76.4160   -0.0830 O         1 <0>         0.0000
  32400 WAT       -33.1820  -76.1660   -9.8330 O         1 <0>         0.0000
  32401 WAT       -33.1820  -76.1660   -9.5830 O         1 <0>         0.0000
  32402 WAT       -33.1820  -76.1660   -9.3330 O         1 <0>         0.0000
  32403 WAT       -33.1820  -76.1660   -9.0830 O         1 <0>         0.0000
  32404 WAT       -33.1820  -76.1660   -8.8330 O         1 <0>         0.0000
  32405 WAT       -33.1820  -76.1660   -8.5830 O         1 <0>         0.0000
  32406 WAT       -33.1820  -76.1660   -8.3330 O         1 <0>         0.0000
  32407 WAT       -33.1820  -76.1660   -8.0830 O         1 <0>         0.0000
  32408 WAT       -33.1820  -76.1660   -7.8330 O         1 <0>         0.0000
  32409 WAT       -33.1820  -76.1660   -7.5830 O         1 <0>         0.0000
  32410 WAT       -33.1820  -76.1660   -7.3330 O         1 <0>         0.0000
  32411 WAT       -33.1820  -76.1660   -7.0830 O         1 <0>         0.0000
  32412 WAT       -33.1820  -76.1660   -6.8330 O         1 <0>         0.0000
  32413 WAT       -33.1820  -76.1660   -6.5830 O         1 <0>         0.0000
  32414 WAT       -33.1820  -76.1660   -6.3330 O         1 <0>         0.0000
  32415 WAT       -33.1820  -76.1660   -6.0830 O         1 <0>         0.0000
  32416 WAT       -33.1820  -76.1660   -5.8330 O         1 <0>         0.0000
  32417 WAT       -33.1820  -76.1660   -5.5830 O         1 <0>         0.0000
  32418 WAT       -33.1820  -76.1660   -5.3330 O         1 <0>         0.0000
  32419 WAT       -33.1820  -76.1660   -5.0830 O         1 <0>         0.0000
  32420 WAT       -33.1820  -76.1660   -4.8330 O         1 <0>         0.0000
  32421 WAT       -33.1820  -76.1660   -4.5830 O         1 <0>         0.0000
  32422 WAT       -33.1820  -76.1660   -4.3330 O         1 <0>         0.0000
  32423 WAT       -33.1820  -76.1660   -4.0830 O         1 <0>         0.0000
  32424 WAT       -33.1820  -76.1660   -3.8330 O         1 <0>         0.0000
  32425 WAT       -33.1820  -76.1660   -3.5830 O         1 <0>         0.0000
  32426 WAT       -33.1820  -76.1660   -3.3330 O         1 <0>         0.0000
  32427 WAT       -33.1820  -76.1660   -3.0830 O         1 <0>         0.0000
  32428 WAT       -33.1820  -76.1660   -2.8330 O         1 <0>         0.0000
  32429 WAT       -33.1820  -76.1660   -2.5830 O         1 <0>         0.0000
  32430 WAT       -33.1820  -76.1660   -2.3330 O         1 <0>         0.0000
  32431 WAT       -33.1820  -76.1660   -2.0830 O         1 <0>         0.0000
  32432 WAT       -33.1820  -76.1660   -1.8330 O         1 <0>         0.0000
  32433 WAT       -33.1820  -76.1660   -1.5830 O         1 <0>         0.0000
  32434 WAT       -33.1820  -76.1660   -1.3330 O         1 <0>         0.0000
  32435 WAT       -33.1820  -76.1660   -1.0830 O         1 <0>         0.0000
  32436 WAT       -33.1820  -76.1660   -0.8330 O         1 <0>         0.0000
  32437 WAT       -33.1820  -76.1660   -0.5830 O         1 <0>         0.0000
  32438 WAT       -33.1820  -76.1660   -0.3330 O         1 <0>         0.0000
  32439 WAT       -33.1820  -76.1660   -0.0830 O         1 <0>         0.0000
  32440 WAT       -33.1820  -75.9160   -9.8330 O         1 <0>         0.0000
  32441 WAT       -33.1820  -75.9160   -9.5830 O         1 <0>         0.0000
  32442 WAT       -33.1820  -75.9160   -9.3330 O         1 <0>         0.0000
  32443 WAT       -33.1820  -75.9160   -9.0830 O         1 <0>         0.0000
  32444 WAT       -33.1820  -75.9160   -8.8330 O         1 <0>         0.0000
  32445 WAT       -33.1820  -75.9160   -8.5830 O         1 <0>         0.0000
  32446 WAT       -33.1820  -75.9160   -8.3330 O         1 <0>         0.0000
  32447 WAT       -33.1820  -75.9160   -8.0830 O         1 <0>         0.0000
  32448 WAT       -33.1820  -75.9160   -7.8330 O         1 <0>         0.0000
  32449 WAT       -33.1820  -75.9160   -7.5830 O         1 <0>         0.0000
  32450 WAT       -33.1820  -75.9160   -7.3330 O         1 <0>         0.0000
  32451 WAT       -33.1820  -75.9160   -7.0830 O         1 <0>         0.0000
  32452 WAT       -33.1820  -75.9160   -6.8330 O         1 <0>         0.0000
  32453 WAT       -33.1820  -75.9160   -6.5830 O         1 <0>         0.0000
  32454 WAT       -33.1820  -75.9160   -6.3330 O         1 <0>         0.0000
  32455 WAT       -33.1820  -75.9160   -6.0830 O         1 <0>         0.0001
  32456 WAT       -33.1820  -75.9160   -5.8330 O         1 <0>         0.0001
  32457 WAT       -33.1820  -75.9160   -5.5830 O         1 <0>         0.0002
  32458 WAT       -33.1820  -75.9160   -5.3330 O         1 <0>         0.0002
  32459 WAT       -33.1820  -75.9160   -5.0830 O         1 <0>         0.0001
  32460 WAT       -33.1820  -75.9160   -4.8330 O         1 <0>         0.0000
  32461 WAT       -33.1820  -75.9160   -4.5830 O         1 <0>         0.0000
  32462 WAT       -33.1820  -75.9160   -4.3330 O         1 <0>         0.0000
  32463 WAT       -33.1820  -75.9160   -4.0830 O         1 <0>         0.0000
  32464 WAT       -33.1820  -75.9160   -3.8330 O         1 <0>         0.0000
  32465 WAT       -33.1820  -75.9160   -3.5830 O         1 <0>         0.0000
  32466 WAT       -33.1820  -75.9160   -3.3330 O         1 <0>         0.0000
  32467 WAT       -33.1820  -75.9160   -3.0830 O         1 <0>         0.0000
  32468 WAT       -33.1820  -75.9160   -2.8330 O         1 <0>         0.0000
  32469 WAT       -33.1820  -75.9160   -2.5830 O         1 <0>         0.0000
  32470 WAT       -33.1820  -75.9160   -2.3330 O         1 <0>         0.0000
  32471 WAT       -33.1820  -75.9160   -2.0830 O         1 <0>         0.0000
  32472 WAT       -33.1820  -75.9160   -1.8330 O         1 <0>         0.0000
  32473 WAT       -33.1820  -75.9160   -1.5830 O         1 <0>         0.0000
  32474 WAT       -33.1820  -75.9160   -1.3330 O         1 <0>         0.0000
  32475 WAT       -33.1820  -75.9160   -1.0830 O         1 <0>         0.0000
  32476 WAT       -33.1820  -75.9160   -0.8330 O         1 <0>         0.0000
  32477 WAT       -33.1820  -75.9160   -0.5830 O         1 <0>         0.0000
  32478 WAT       -33.1820  -75.9160   -0.3330 O         1 <0>         0.0000
  32479 WAT       -33.1820  -75.9160   -0.0830 O         1 <0>         0.0000
  32480 WAT       -33.1820  -75.6660   -9.8330 O         1 <0>         0.0000
  32481 WAT       -33.1820  -75.6660   -9.5830 O         1 <0>         0.0000
  32482 WAT       -33.1820  -75.6660   -9.3330 O         1 <0>         0.0000
  32483 WAT       -33.1820  -75.6660   -9.0830 O         1 <0>         0.0000
  32484 WAT       -33.1820  -75.6660   -8.8330 O         1 <0>         0.0000
  32485 WAT       -33.1820  -75.6660   -8.5830 O         1 <0>         0.0000
  32486 WAT       -33.1820  -75.6660   -8.3330 O         1 <0>         0.0000
  32487 WAT       -33.1820  -75.6660   -8.0830 O         1 <0>         0.0000
  32488 WAT       -33.1820  -75.6660   -7.8330 O         1 <0>         0.0000
  32489 WAT       -33.1820  -75.6660   -7.5830 O         1 <0>         0.0000
  32490 WAT       -33.1820  -75.6660   -7.3330 O         1 <0>         0.0000
  32491 WAT       -33.1820  -75.6660   -7.0830 O         1 <0>         0.0000
  32492 WAT       -33.1820  -75.6660   -6.8330 O         1 <0>         0.0000
  32493 WAT       -33.1820  -75.6660   -6.5830 O         1 <0>         0.0000
  32494 WAT       -33.1820  -75.6660   -6.3330 O         1 <0>         0.0001
  32495 WAT       -33.1820  -75.6660   -6.0830 O         1 <0>         0.0003
  32496 WAT       -33.1820  -75.6660   -5.8330 O         1 <0>         0.0007
  32497 WAT       -33.1820  -75.6660   -5.5830 O         1 <0>         0.0010
  32498 WAT       -33.1820  -75.6660   -5.3330 O         1 <0>         0.0010
  32499 WAT       -33.1820  -75.6660   -5.0830 O         1 <0>         0.0007
  32500 WAT       -33.1820  -75.6660   -4.8330 O         1 <0>         0.0004
  32501 WAT       -33.1820  -75.6660   -4.5830 O         1 <0>         0.0002
  32502 WAT       -33.1820  -75.6660   -4.3330 O         1 <0>         0.0002
  32503 WAT       -33.1820  -75.6660   -4.0830 O         1 <0>         0.0003
  32504 WAT       -33.1820  -75.6660   -3.8330 O         1 <0>         0.0004
  32505 WAT       -33.1820  -75.6660   -3.5830 O         1 <0>         0.0004
  32506 WAT       -33.1820  -75.6660   -3.3330 O         1 <0>         0.0005
  32507 WAT       -33.1820  -75.6660   -3.0830 O         1 <0>         0.0004
  32508 WAT       -33.1820  -75.6660   -2.8330 O         1 <0>         0.0002
  32509 WAT       -33.1820  -75.6660   -2.5830 O         1 <0>         0.0001
  32510 WAT       -33.1820  -75.6660   -2.3330 O         1 <0>         0.0000
  32511 WAT       -33.1820  -75.6660   -2.0830 O         1 <0>         0.0000
  32512 WAT       -33.1820  -75.6660   -1.8330 O         1 <0>         0.0000
  32513 WAT       -33.1820  -75.6660   -1.5830 O         1 <0>         0.0000
  32514 WAT       -33.1820  -75.6660   -1.3330 O         1 <0>         0.0000
  32515 WAT       -33.1820  -75.6660   -1.0830 O         1 <0>         0.0000
  32516 WAT       -33.1820  -75.6660   -0.8330 O         1 <0>         0.0000
  32517 WAT       -33.1820  -75.6660   -0.5830 O         1 <0>         0.0000
  32518 WAT       -33.1820  -75.6660   -0.3330 O         1 <0>         0.0000
  32519 WAT       -33.1820  -75.6660   -0.0830 O         1 <0>         0.0000
  32520 WAT       -33.1820  -75.4160   -9.8330 O         1 <0>         0.0000
  32521 WAT       -33.1820  -75.4160   -9.5830 O         1 <0>         0.0000
  32522 WAT       -33.1820  -75.4160   -9.3330 O         1 <0>         0.0000
  32523 WAT       -33.1820  -75.4160   -9.0830 O         1 <0>         0.0000
  32524 WAT       -33.1820  -75.4160   -8.8330 O         1 <0>         0.0000
  32525 WAT       -33.1820  -75.4160   -8.5830 O         1 <0>         0.0000
  32526 WAT       -33.1820  -75.4160   -8.3330 O         1 <0>         0.0000
  32527 WAT       -33.1820  -75.4160   -8.0830 O         1 <0>         0.0000
  32528 WAT       -33.1820  -75.4160   -7.8330 O         1 <0>         0.0000
  32529 WAT       -33.1820  -75.4160   -7.5830 O         1 <0>         0.0000
  32530 WAT       -33.1820  -75.4160   -7.3330 O         1 <0>         0.0000
  32531 WAT       -33.1820  -75.4160   -7.0830 O         1 <0>         0.0000
  32532 WAT       -33.1820  -75.4160   -6.8330 O         1 <0>         0.0000
  32533 WAT       -33.1820  -75.4160   -6.5830 O         1 <0>         0.0000
  32534 WAT       -33.1820  -75.4160   -6.3330 O         1 <0>         0.0003
  32535 WAT       -33.1820  -75.4160   -6.0830 O         1 <0>         0.0010
  32536 WAT       -33.1820  -75.4160   -5.8330 O         1 <0>         0.0023
  32537 WAT       -33.1820  -75.4160   -5.5830 O         1 <0>         0.0035
  32538 WAT       -33.1820  -75.4160   -5.3330 O         1 <0>         0.0037
  32539 WAT       -33.1820  -75.4160   -5.0830 O         1 <0>         0.0029
  32540 WAT       -33.1820  -75.4160   -4.8330 O         1 <0>         0.0019
  32541 WAT       -33.1820  -75.4160   -4.5830 O         1 <0>         0.0013
  32542 WAT       -33.1820  -75.4160   -4.3330 O         1 <0>         0.0013
  32543 WAT       -33.1820  -75.4160   -4.0830 O         1 <0>         0.0014
  32544 WAT       -33.1820  -75.4160   -3.8330 O         1 <0>         0.0016
  32545 WAT       -33.1820  -75.4160   -3.5830 O         1 <0>         0.0017
  32546 WAT       -33.1820  -75.4160   -3.3330 O         1 <0>         0.0018
  32547 WAT       -33.1820  -75.4160   -3.0830 O         1 <0>         0.0016
  32548 WAT       -33.1820  -75.4160   -2.8330 O         1 <0>         0.0012
  32549 WAT       -33.1820  -75.4160   -2.5830 O         1 <0>         0.0007
  32550 WAT       -33.1820  -75.4160   -2.3330 O         1 <0>         0.0003
  32551 WAT       -33.1820  -75.4160   -2.0830 O         1 <0>         0.0001
  32552 WAT       -33.1820  -75.4160   -1.8330 O         1 <0>         0.0000
  32553 WAT       -33.1820  -75.4160   -1.5830 O         1 <0>         0.0000
  32554 WAT       -33.1820  -75.4160   -1.3330 O         1 <0>         0.0000
  32555 WAT       -33.1820  -75.4160   -1.0830 O         1 <0>         0.0000
  32556 WAT       -33.1820  -75.4160   -0.8330 O         1 <0>         0.0000
  32557 WAT       -33.1820  -75.4160   -0.5830 O         1 <0>         0.0000
  32558 WAT       -33.1820  -75.4160   -0.3330 O         1 <0>         0.0000
  32559 WAT       -33.1820  -75.4160   -0.0830 O         1 <0>         0.0000
  32560 WAT       -33.1820  -75.1660   -9.8330 O         1 <0>         0.0000
  32561 WAT       -33.1820  -75.1660   -9.5830 O         1 <0>         0.0000
  32562 WAT       -33.1820  -75.1660   -9.3330 O         1 <0>         0.0000
  32563 WAT       -33.1820  -75.1660   -9.0830 O         1 <0>         0.0000
  32564 WAT       -33.1820  -75.1660   -8.8330 O         1 <0>         0.0000
  32565 WAT       -33.1820  -75.1660   -8.5830 O         1 <0>         0.0000
  32566 WAT       -33.1820  -75.1660   -8.3330 O         1 <0>         0.0000
  32567 WAT       -33.1820  -75.1660   -8.0830 O         1 <0>         0.0000
  32568 WAT       -33.1820  -75.1660   -7.8330 O         1 <0>         0.0000
  32569 WAT       -33.1820  -75.1660   -7.5830 O         1 <0>         0.0000
  32570 WAT       -33.1820  -75.1660   -7.3330 O         1 <0>         0.0000
  32571 WAT       -33.1820  -75.1660   -7.0830 O         1 <0>         0.0000
  32572 WAT       -33.1820  -75.1660   -6.8330 O         1 <0>         0.0000
  32573 WAT       -33.1820  -75.1660   -6.5830 O         1 <0>         0.0001
  32574 WAT       -33.1820  -75.1660   -6.3330 O         1 <0>         0.0009
  32575 WAT       -33.1820  -75.1660   -6.0830 O         1 <0>         0.0028
  32576 WAT       -33.1820  -75.1660   -5.8330 O         1 <0>         0.0062
  32577 WAT       -33.1820  -75.1660   -5.5830 O         1 <0>         0.0093
  32578 WAT       -33.1820  -75.1660   -5.3330 O         1 <0>         0.0100
  32579 WAT       -33.1820  -75.1660   -5.0830 O         1 <0>         0.0083
  32580 WAT       -33.1820  -75.1660   -4.8330 O         1 <0>         0.0059
  32581 WAT       -33.1820  -75.1660   -4.5830 O         1 <0>         0.0045
  32582 WAT       -33.1820  -75.1660   -4.3330 O         1 <0>         0.0040
  32583 WAT       -33.1820  -75.1660   -4.0830 O         1 <0>         0.0038
  32584 WAT       -33.1820  -75.1660   -3.8330 O         1 <0>         0.0039
  32585 WAT       -33.1820  -75.1660   -3.5830 O         1 <0>         0.0041
  32586 WAT       -33.1820  -75.1660   -3.3330 O         1 <0>         0.0044
  32587 WAT       -33.1820  -75.1660   -3.0830 O         1 <0>         0.0048
  32588 WAT       -33.1820  -75.1660   -2.8330 O         1 <0>         0.0045
  32589 WAT       -33.1820  -75.1660   -2.5830 O         1 <0>         0.0033
  32590 WAT       -33.1820  -75.1660   -2.3330 O         1 <0>         0.0018
  32591 WAT       -33.1820  -75.1660   -2.0830 O         1 <0>         0.0006
  32592 WAT       -33.1820  -75.1660   -1.8330 O         1 <0>         0.0001
  32593 WAT       -33.1820  -75.1660   -1.5830 O         1 <0>         0.0000
  32594 WAT       -33.1820  -75.1660   -1.3330 O         1 <0>         0.0000
  32595 WAT       -33.1820  -75.1660   -1.0830 O         1 <0>         0.0000
  32596 WAT       -33.1820  -75.1660   -0.8330 O         1 <0>         0.0000
  32597 WAT       -33.1820  -75.1660   -0.5830 O         1 <0>         0.0000
  32598 WAT       -33.1820  -75.1660   -0.3330 O         1 <0>         0.0000
  32599 WAT       -33.1820  -75.1660   -0.0830 O         1 <0>         0.0000
  32600 WAT       -33.1820  -74.9160   -9.8330 O         1 <0>         0.0000
  32601 WAT       -33.1820  -74.9160   -9.5830 O         1 <0>         0.0000
  32602 WAT       -33.1820  -74.9160   -9.3330 O         1 <0>         0.0000
  32603 WAT       -33.1820  -74.9160   -9.0830 O         1 <0>         0.0000
  32604 WAT       -33.1820  -74.9160   -8.8330 O         1 <0>         0.0000
  32605 WAT       -33.1820  -74.9160   -8.5830 O         1 <0>         0.0000
  32606 WAT       -33.1820  -74.9160   -8.3330 O         1 <0>         0.0000
  32607 WAT       -33.1820  -74.9160   -8.0830 O         1 <0>         0.0000
  32608 WAT       -33.1820  -74.9160   -7.8330 O         1 <0>         0.0000
  32609 WAT       -33.1820  -74.9160   -7.5830 O         1 <0>         0.0000
  32610 WAT       -33.1820  -74.9160   -7.3330 O         1 <0>         0.0000
  32611 WAT       -33.1820  -74.9160   -7.0830 O         1 <0>         0.0000
  32612 WAT       -33.1820  -74.9160   -6.8330 O         1 <0>         0.0000
  32613 WAT       -33.1820  -74.9160   -6.5830 O         1 <0>         0.0005
  32614 WAT       -33.1820  -74.9160   -6.3330 O         1 <0>         0.0022
  32615 WAT       -33.1820  -74.9160   -6.0830 O         1 <0>         0.0064
  32616 WAT       -33.1820  -74.9160   -5.8330 O         1 <0>         0.0128
  32617 WAT       -33.1820  -74.9160   -5.5830 O         1 <0>         0.0186
  32618 WAT       -33.1820  -74.9160   -5.3330 O         1 <0>         0.0201
  32619 WAT       -33.1820  -74.9160   -5.0830 O         1 <0>         0.0172
  32620 WAT       -33.1820  -74.9160   -4.8330 O         1 <0>         0.0130
  32621 WAT       -33.1820  -74.9160   -4.5830 O         1 <0>         0.0097
  32622 WAT       -33.1820  -74.9160   -4.3330 O         1 <0>         0.0079
  32623 WAT       -33.1820  -74.9160   -4.0830 O         1 <0>         0.0069
  32624 WAT       -33.1820  -74.9160   -3.8330 O         1 <0>         0.0066
  32625 WAT       -33.1820  -74.9160   -3.5830 O         1 <0>         0.0073
  32626 WAT       -33.1820  -74.9160   -3.3330 O         1 <0>         0.0096
  32627 WAT       -33.1820  -74.9160   -3.0830 O         1 <0>         0.0129
  32628 WAT       -33.1820  -74.9160   -2.8330 O         1 <0>         0.0149
  32629 WAT       -33.1820  -74.9160   -2.5830 O         1 <0>         0.0133
  32630 WAT       -33.1820  -74.9160   -2.3330 O         1 <0>         0.0086
  32631 WAT       -33.1820  -74.9160   -2.0830 O         1 <0>         0.0038
  32632 WAT       -33.1820  -74.9160   -1.8330 O         1 <0>         0.0010
  32633 WAT       -33.1820  -74.9160   -1.5830 O         1 <0>         0.0002
  32634 WAT       -33.1820  -74.9160   -1.3330 O         1 <0>         0.0000
  32635 WAT       -33.1820  -74.9160   -1.0830 O         1 <0>         0.0000
  32636 WAT       -33.1820  -74.9160   -0.8330 O         1 <0>         0.0000
  32637 WAT       -33.1820  -74.9160   -0.5830 O         1 <0>         0.0000
  32638 WAT       -33.1820  -74.9160   -0.3330 O         1 <0>         0.0000
  32639 WAT       -33.1820  -74.9160   -0.0830 O         1 <0>         0.0000
  32640 WAT       -33.1820  -74.6660   -9.8330 O         1 <0>         0.0000
  32641 WAT       -33.1820  -74.6660   -9.5830 O         1 <0>         0.0000
  32642 WAT       -33.1820  -74.6660   -9.3330 O         1 <0>         0.0000
  32643 WAT       -33.1820  -74.6660   -9.0830 O         1 <0>         0.0000
  32644 WAT       -33.1820  -74.6660   -8.8330 O         1 <0>         0.0000
  32645 WAT       -33.1820  -74.6660   -8.5830 O         1 <0>         0.0000
  32646 WAT       -33.1820  -74.6660   -8.3330 O         1 <0>         0.0000
  32647 WAT       -33.1820  -74.6660   -8.0830 O         1 <0>         0.0000
  32648 WAT       -33.1820  -74.6660   -7.8330 O         1 <0>         0.0000
  32649 WAT       -33.1820  -74.6660   -7.5830 O         1 <0>         0.0000
  32650 WAT       -33.1820  -74.6660   -7.3330 O         1 <0>         0.0000
  32651 WAT       -33.1820  -74.6660   -7.0830 O         1 <0>         0.0000
  32652 WAT       -33.1820  -74.6660   -6.8330 O         1 <0>         0.0002
  32653 WAT       -33.1820  -74.6660   -6.5830 O         1 <0>         0.0013
  32654 WAT       -33.1820  -74.6660   -6.3330 O         1 <0>         0.0047
  32655 WAT       -33.1820  -74.6660   -6.0830 O         1 <0>         0.0117
  32656 WAT       -33.1820  -74.6660   -5.8330 O         1 <0>         0.0213
  32657 WAT       -33.1820  -74.6660   -5.5830 O         1 <0>         0.0294
  32658 WAT       -33.1820  -74.6660   -5.3330 O         1 <0>         0.0312
  32659 WAT       -33.1820  -74.6660   -5.0830 O         1 <0>         0.0269
  32660 WAT       -33.1820  -74.6660   -4.8330 O         1 <0>         0.0202
  32661 WAT       -33.1820  -74.6660   -4.5830 O         1 <0>         0.0146
  32662 WAT       -33.1820  -74.6660   -4.3330 O         1 <0>         0.0109
  32663 WAT       -33.1820  -74.6660   -4.0830 O         1 <0>         0.0088
  32664 WAT       -33.1820  -74.6660   -3.8330 O         1 <0>         0.0088
  32665 WAT       -33.1820  -74.6660   -3.5830 O         1 <0>         0.0123
  32666 WAT       -33.1820  -74.6660   -3.3330 O         1 <0>         0.0214
  32667 WAT       -33.1820  -74.6660   -3.0830 O         1 <0>         0.0343
  32668 WAT       -33.1820  -74.6660   -2.8330 O         1 <0>         0.0435
  32669 WAT       -33.1820  -74.6660   -2.5830 O         1 <0>         0.0411
  32670 WAT       -33.1820  -74.6660   -2.3330 O         1 <0>         0.0279
  32671 WAT       -33.1820  -74.6660   -2.0830 O         1 <0>         0.0131
  32672 WAT       -33.1820  -74.6660   -1.8330 O         1 <0>         0.0041
  32673 WAT       -33.1820  -74.6660   -1.5830 O         1 <0>         0.0007
  32674 WAT       -33.1820  -74.6660   -1.3330 O         1 <0>         0.0001
  32675 WAT       -33.1820  -74.6660   -1.0830 O         1 <0>         0.0000
  32676 WAT       -33.1820  -74.6660   -0.8330 O         1 <0>         0.0000
  32677 WAT       -33.1820  -74.6660   -0.5830 O         1 <0>         0.0000
  32678 WAT       -33.1820  -74.6660   -0.3330 O         1 <0>         0.0000
  32679 WAT       -33.1820  -74.6660   -0.0830 O         1 <0>         0.0000
  32680 WAT       -33.1820  -74.4160   -9.8330 O         1 <0>         0.0000
  32681 WAT       -33.1820  -74.4160   -9.5830 O         1 <0>         0.0000
  32682 WAT       -33.1820  -74.4160   -9.3330 O         1 <0>         0.0000
  32683 WAT       -33.1820  -74.4160   -9.0830 O         1 <0>         0.0000
  32684 WAT       -33.1820  -74.4160   -8.8330 O         1 <0>         0.0000
  32685 WAT       -33.1820  -74.4160   -8.5830 O         1 <0>         0.0000
  32686 WAT       -33.1820  -74.4160   -8.3330 O         1 <0>         0.0000
  32687 WAT       -33.1820  -74.4160   -8.0830 O         1 <0>         0.0000
  32688 WAT       -33.1820  -74.4160   -7.8330 O         1 <0>         0.0000
  32689 WAT       -33.1820  -74.4160   -7.5830 O         1 <0>         0.0000
  32690 WAT       -33.1820  -74.4160   -7.3330 O         1 <0>         0.0000
  32691 WAT       -33.1820  -74.4160   -7.0830 O         1 <0>         0.0001
  32692 WAT       -33.1820  -74.4160   -6.8330 O         1 <0>         0.0007
  32693 WAT       -33.1820  -74.4160   -6.5830 O         1 <0>         0.0029
  32694 WAT       -33.1820  -74.4160   -6.3330 O         1 <0>         0.0083
  32695 WAT       -33.1820  -74.4160   -6.0830 O         1 <0>         0.0179
  32696 WAT       -33.1820  -74.4160   -5.8330 O         1 <0>         0.0297
  32697 WAT       -33.1820  -74.4160   -5.5830 O         1 <0>         0.0384
  32698 WAT       -33.1820  -74.4160   -5.3330 O         1 <0>         0.0392
  32699 WAT       -33.1820  -74.4160   -5.0830 O         1 <0>         0.0326
  32700 WAT       -33.1820  -74.4160   -4.8330 O         1 <0>         0.0236
  32701 WAT       -33.1820  -74.4160   -4.5830 O         1 <0>         0.0159
  32702 WAT       -33.1820  -74.4160   -4.3330 O         1 <0>         0.0109
  32703 WAT       -33.1820  -74.4160   -4.0830 O         1 <0>         0.0088
  32704 WAT       -33.1820  -74.4160   -3.8330 O         1 <0>         0.0114
  32705 WAT       -33.1820  -74.4160   -3.5830 O         1 <0>         0.0234
  32706 WAT       -33.1820  -74.4160   -3.3330 O         1 <0>         0.0486
  32707 WAT       -33.1820  -74.4160   -3.0830 O         1 <0>         0.0815
  32708 WAT       -33.1820  -74.4160   -2.8330 O         1 <0>         0.1032
  32709 WAT       -33.1820  -74.4160   -2.5830 O         1 <0>         0.0962
  32710 WAT       -33.1820  -74.4160   -2.3330 O         1 <0>         0.0647
  32711 WAT       -33.1820  -74.4160   -2.0830 O         1 <0>         0.0307
  32712 WAT       -33.1820  -74.4160   -1.8330 O         1 <0>         0.0099
  32713 WAT       -33.1820  -74.4160   -1.5830 O         1 <0>         0.0020
  32714 WAT       -33.1820  -74.4160   -1.3330 O         1 <0>         0.0002
  32715 WAT       -33.1820  -74.4160   -1.0830 O         1 <0>         0.0000
  32716 WAT       -33.1820  -74.4160   -0.8330 O         1 <0>         0.0000
  32717 WAT       -33.1820  -74.4160   -0.5830 O         1 <0>         0.0000
  32718 WAT       -33.1820  -74.4160   -0.3330 O         1 <0>         0.0000
  32719 WAT       -33.1820  -74.4160   -0.0830 O         1 <0>         0.0000
  32720 WAT       -33.1820  -74.1660   -9.8330 O         1 <0>         0.0000
  32721 WAT       -33.1820  -74.1660   -9.5830 O         1 <0>         0.0000
  32722 WAT       -33.1820  -74.1660   -9.3330 O         1 <0>         0.0000
  32723 WAT       -33.1820  -74.1660   -9.0830 O         1 <0>         0.0000
  32724 WAT       -33.1820  -74.1660   -8.8330 O         1 <0>         0.0000
  32725 WAT       -33.1820  -74.1660   -8.5830 O         1 <0>         0.0000
  32726 WAT       -33.1820  -74.1660   -8.3330 O         1 <0>         0.0000
  32727 WAT       -33.1820  -74.1660   -8.0830 O         1 <0>         0.0000
  32728 WAT       -33.1820  -74.1660   -7.8330 O         1 <0>         0.0000
  32729 WAT       -33.1820  -74.1660   -7.5830 O         1 <0>         0.0000
  32730 WAT       -33.1820  -74.1660   -7.3330 O         1 <0>         0.0001
  32731 WAT       -33.1820  -74.1660   -7.0830 O         1 <0>         0.0005
  32732 WAT       -33.1820  -74.1660   -6.8330 O         1 <0>         0.0020
  32733 WAT       -33.1820  -74.1660   -6.5830 O         1 <0>         0.0057
  32734 WAT       -33.1820  -74.1660   -6.3330 O         1 <0>         0.0129
  32735 WAT       -33.1820  -74.1660   -6.0830 O         1 <0>         0.0238
  32736 WAT       -33.1820  -74.1660   -5.8330 O         1 <0>         0.0356
  32737 WAT       -33.1820  -74.1660   -5.5830 O         1 <0>         0.0429
  32738 WAT       -33.1820  -74.1660   -5.3330 O         1 <0>         0.0418
  32739 WAT       -33.1820  -74.1660   -5.0830 O         1 <0>         0.0330
  32740 WAT       -33.1820  -74.1660   -4.8330 O         1 <0>         0.0220
  32741 WAT       -33.1820  -74.1660   -4.5830 O         1 <0>         0.0133
  32742 WAT       -33.1820  -74.1660   -4.3330 O         1 <0>         0.0085
  32743 WAT       -33.1820  -74.1660   -4.0830 O         1 <0>         0.0082
  32744 WAT       -33.1820  -74.1660   -3.8330 O         1 <0>         0.0174
  32745 WAT       -33.1820  -74.1660   -3.5830 O         1 <0>         0.0457
  32746 WAT       -33.1820  -74.1660   -3.3330 O         1 <0>         0.0981
  32747 WAT       -33.1820  -74.1660   -3.0830 O         1 <0>         0.1588
  32748 WAT       -33.1820  -74.1660   -2.8330 O         1 <0>         0.1904
  32749 WAT       -33.1820  -74.1660   -2.5830 O         1 <0>         0.1680
  32750 WAT       -33.1820  -74.1660   -2.3330 O         1 <0>         0.1080
  32751 WAT       -33.1820  -74.1660   -2.0830 O         1 <0>         0.0498
  32752 WAT       -33.1820  -74.1660   -1.8330 O         1 <0>         0.0159
  32753 WAT       -33.1820  -74.1660   -1.5830 O         1 <0>         0.0032
  32754 WAT       -33.1820  -74.1660   -1.3330 O         1 <0>         0.0003
  32755 WAT       -33.1820  -74.1660   -1.0830 O         1 <0>         0.0000
  32756 WAT       -33.1820  -74.1660   -0.8330 O         1 <0>         0.0000
  32757 WAT       -33.1820  -74.1660   -0.5830 O         1 <0>         0.0000
  32758 WAT       -33.1820  -74.1660   -0.3330 O         1 <0>         0.0000
  32759 WAT       -33.1820  -74.1660   -0.0830 O         1 <0>         0.0000
  32760 WAT       -33.1820  -73.9160   -9.8330 O         1 <0>         0.0000
  32761 WAT       -33.1820  -73.9160   -9.5830 O         1 <0>         0.0000
  32762 WAT       -33.1820  -73.9160   -9.3330 O         1 <0>         0.0000
  32763 WAT       -33.1820  -73.9160   -9.0830 O         1 <0>         0.0000
  32764 WAT       -33.1820  -73.9160   -8.8330 O         1 <0>         0.0000
  32765 WAT       -33.1820  -73.9160   -8.5830 O         1 <0>         0.0000
  32766 WAT       -33.1820  -73.9160   -8.3330 O         1 <0>         0.0000
  32767 WAT       -33.1820  -73.9160   -8.0830 O         1 <0>         0.0000
  32768 WAT       -33.1820  -73.9160   -7.8330 O         1 <0>         0.0000
  32769 WAT       -33.1820  -73.9160   -7.5830 O         1 <0>         0.0000
  32770 WAT       -33.1820  -73.9160   -7.3330 O         1 <0>         0.0002
  32771 WAT       -33.1820  -73.9160   -7.0830 O         1 <0>         0.0012
  32772 WAT       -33.1820  -73.9160   -6.8330 O         1 <0>         0.0039
  32773 WAT       -33.1820  -73.9160   -6.5830 O         1 <0>         0.0090
  32774 WAT       -33.1820  -73.9160   -6.3330 O         1 <0>         0.0170
  32775 WAT       -33.1820  -73.9160   -6.0830 O         1 <0>         0.0270
  32776 WAT       -33.1820  -73.9160   -5.8330 O         1 <0>         0.0368
  32777 WAT       -33.1820  -73.9160   -5.5830 O         1 <0>         0.0421
  32778 WAT       -33.1820  -73.9160   -5.3330 O         1 <0>         0.0396
  32779 WAT       -33.1820  -73.9160   -5.0830 O         1 <0>         0.0299
  32780 WAT       -33.1820  -73.9160   -4.8330 O         1 <0>         0.0183
  32781 WAT       -33.1820  -73.9160   -4.5830 O         1 <0>         0.0097
  32782 WAT       -33.1820  -73.9160   -4.3330 O         1 <0>         0.0059
  32783 WAT       -33.1820  -73.9160   -4.0830 O         1 <0>         0.0086
  32784 WAT       -33.1820  -73.9160   -3.8330 O         1 <0>         0.0270
  32785 WAT       -33.1820  -73.9160   -3.5830 O         1 <0>         0.0761
  32786 WAT       -33.1820  -73.9160   -3.3330 O         1 <0>         0.1585
  32787 WAT       -33.1820  -73.9160   -3.0830 O         1 <0>         0.2412
  32788 WAT       -33.1820  -73.9160   -2.8330 O         1 <0>         0.2675
  32789 WAT       -33.1820  -73.9160   -2.5830 O         1 <0>         0.2174
  32790 WAT       -33.1820  -73.9160   -2.3330 O         1 <0>         0.1297
  32791 WAT       -33.1820  -73.9160   -2.0830 O         1 <0>         0.0562
  32792 WAT       -33.1820  -73.9160   -1.8330 O         1 <0>         0.0171
  32793 WAT       -33.1820  -73.9160   -1.5830 O         1 <0>         0.0033
  32794 WAT       -33.1820  -73.9160   -1.3330 O         1 <0>         0.0003
  32795 WAT       -33.1820  -73.9160   -1.0830 O         1 <0>         0.0000
  32796 WAT       -33.1820  -73.9160   -0.8330 O         1 <0>         0.0000
  32797 WAT       -33.1820  -73.9160   -0.5830 O         1 <0>         0.0000
  32798 WAT       -33.1820  -73.9160   -0.3330 O         1 <0>         0.0000
  32799 WAT       -33.1820  -73.9160   -0.0830 O         1 <0>         0.0000
  32800 WAT       -33.1820  -73.6660   -9.8330 O         1 <0>         0.0000
  32801 WAT       -33.1820  -73.6660   -9.5830 O         1 <0>         0.0000
  32802 WAT       -33.1820  -73.6660   -9.3330 O         1 <0>         0.0000
  32803 WAT       -33.1820  -73.6660   -9.0830 O         1 <0>         0.0000
  32804 WAT       -33.1820  -73.6660   -8.8330 O         1 <0>         0.0000
  32805 WAT       -33.1820  -73.6660   -8.5830 O         1 <0>         0.0000
  32806 WAT       -33.1820  -73.6660   -8.3330 O         1 <0>         0.0000
  32807 WAT       -33.1820  -73.6660   -8.0830 O         1 <0>         0.0000
  32808 WAT       -33.1820  -73.6660   -7.8330 O         1 <0>         0.0000
  32809 WAT       -33.1820  -73.6660   -7.5830 O         1 <0>         0.0001
  32810 WAT       -33.1820  -73.6660   -7.3330 O         1 <0>         0.0006
  32811 WAT       -33.1820  -73.6660   -7.0830 O         1 <0>         0.0024
  32812 WAT       -33.1820  -73.6660   -6.8330 O         1 <0>         0.0061
  32813 WAT       -33.1820  -73.6660   -6.5830 O         1 <0>         0.0117
  32814 WAT       -33.1820  -73.6660   -6.3330 O         1 <0>         0.0184
  32815 WAT       -33.1820  -73.6660   -6.0830 O         1 <0>         0.0257
  32816 WAT       -33.1820  -73.6660   -5.8330 O         1 <0>         0.0324
  32817 WAT       -33.1820  -73.6660   -5.5830 O         1 <0>         0.0358
  32818 WAT       -33.1820  -73.6660   -5.3330 O         1 <0>         0.0331
  32819 WAT       -33.1820  -73.6660   -5.0830 O         1 <0>         0.0245
  32820 WAT       -33.1820  -73.6660   -4.8330 O         1 <0>         0.0142
  32821 WAT       -33.1820  -73.6660   -4.5830 O         1 <0>         0.0069
  32822 WAT       -33.1820  -73.6660   -4.3330 O         1 <0>         0.0042
  32823 WAT       -33.1820  -73.6660   -4.0830 O         1 <0>         0.0094
  32824 WAT       -33.1820  -73.6660   -3.8330 O         1 <0>         0.0348
  32825 WAT       -33.1820  -73.6660   -3.5830 O         1 <0>         0.0982
  32826 WAT       -33.1820  -73.6660   -3.3330 O         1 <0>         0.1968
  32827 WAT       -33.1820  -73.6660   -3.0830 O         1 <0>         0.2804
  32828 WAT       -33.1820  -73.6660   -2.8330 O         1 <0>         0.2856
  32829 WAT       -33.1820  -73.6660   -2.5830 O         1 <0>         0.2108
  32830 WAT       -33.1820  -73.6660   -2.3330 O         1 <0>         0.1142
  32831 WAT       -33.1820  -73.6660   -2.0830 O         1 <0>         0.0451
  32832 WAT       -33.1820  -73.6660   -1.8330 O         1 <0>         0.0126
  32833 WAT       -33.1820  -73.6660   -1.5830 O         1 <0>         0.0022
  32834 WAT       -33.1820  -73.6660   -1.3330 O         1 <0>         0.0002
  32835 WAT       -33.1820  -73.6660   -1.0830 O         1 <0>         0.0000
  32836 WAT       -33.1820  -73.6660   -0.8330 O         1 <0>         0.0000
  32837 WAT       -33.1820  -73.6660   -0.5830 O         1 <0>         0.0000
  32838 WAT       -33.1820  -73.6660   -0.3330 O         1 <0>         0.0000
  32839 WAT       -33.1820  -73.6660   -0.0830 O         1 <0>         0.0000
  32840 WAT       -33.1820  -73.4160   -9.8330 O         1 <0>         0.0000
  32841 WAT       -33.1820  -73.4160   -9.5830 O         1 <0>         0.0000
  32842 WAT       -33.1820  -73.4160   -9.3330 O         1 <0>         0.0000
  32843 WAT       -33.1820  -73.4160   -9.0830 O         1 <0>         0.0000
  32844 WAT       -33.1820  -73.4160   -8.8330 O         1 <0>         0.0000
  32845 WAT       -33.1820  -73.4160   -8.5830 O         1 <0>         0.0000
  32846 WAT       -33.1820  -73.4160   -8.3330 O         1 <0>         0.0000
  32847 WAT       -33.1820  -73.4160   -8.0830 O         1 <0>         0.0000
  32848 WAT       -33.1820  -73.4160   -7.8330 O         1 <0>         0.0000
  32849 WAT       -33.1820  -73.4160   -7.5830 O         1 <0>         0.0002
  32850 WAT       -33.1820  -73.4160   -7.3330 O         1 <0>         0.0012
  32851 WAT       -33.1820  -73.4160   -7.0830 O         1 <0>         0.0038
  32852 WAT       -33.1820  -73.4160   -6.8330 O         1 <0>         0.0080
  32853 WAT       -33.1820  -73.4160   -6.5830 O         1 <0>         0.0125
  32854 WAT       -33.1820  -73.4160   -6.3330 O         1 <0>         0.0164
  32855 WAT       -33.1820  -73.4160   -6.0830 O         1 <0>         0.0202
  32856 WAT       -33.1820  -73.4160   -5.8330 O         1 <0>         0.0239
  32857 WAT       -33.1820  -73.4160   -5.5830 O         1 <0>         0.0259
  32858 WAT       -33.1820  -73.4160   -5.3330 O         1 <0>         0.0240
  32859 WAT       -33.1820  -73.4160   -5.0830 O         1 <0>         0.0179
  32860 WAT       -33.1820  -73.4160   -4.8330 O         1 <0>         0.0104
  32861 WAT       -33.1820  -73.4160   -4.5830 O         1 <0>         0.0049
  32862 WAT       -33.1820  -73.4160   -4.3330 O         1 <0>         0.0032
  32863 WAT       -33.1820  -73.4160   -4.0830 O         1 <0>         0.0090
  32864 WAT       -33.1820  -73.4160   -3.8330 O         1 <0>         0.0350
  32865 WAT       -33.1820  -73.4160   -3.5830 O         1 <0>         0.0977
  32866 WAT       -33.1820  -73.4160   -3.3330 O         1 <0>         0.1884
  32867 WAT       -33.1820  -73.4160   -3.0830 O         1 <0>         0.2530
  32868 WAT       -33.1820  -73.4160   -2.8330 O         1 <0>         0.2378
  32869 WAT       -33.1820  -73.4160   -2.5830 O         1 <0>         0.1592
  32870 WAT       -33.1820  -73.4160   -2.3330 O         1 <0>         0.0772
  32871 WAT       -33.1820  -73.4160   -2.0830 O         1 <0>         0.0271
  32872 WAT       -33.1820  -73.4160   -1.8330 O         1 <0>         0.0067
  32873 WAT       -33.1820  -73.4160   -1.5830 O         1 <0>         0.0010
  32874 WAT       -33.1820  -73.4160   -1.3330 O         1 <0>         0.0000
  32875 WAT       -33.1820  -73.4160   -1.0830 O         1 <0>         0.0000
  32876 WAT       -33.1820  -73.4160   -0.8330 O         1 <0>         0.0000
  32877 WAT       -33.1820  -73.4160   -0.5830 O         1 <0>         0.0000
  32878 WAT       -33.1820  -73.4160   -0.3330 O         1 <0>         0.0000
  32879 WAT       -33.1820  -73.4160   -0.0830 O         1 <0>         0.0000
  32880 WAT       -33.1820  -73.1660   -9.8330 O         1 <0>         0.0000
  32881 WAT       -33.1820  -73.1660   -9.5830 O         1 <0>         0.0000
  32882 WAT       -33.1820  -73.1660   -9.3330 O         1 <0>         0.0000
  32883 WAT       -33.1820  -73.1660   -9.0830 O         1 <0>         0.0000
  32884 WAT       -33.1820  -73.1660   -8.8330 O         1 <0>         0.0000
  32885 WAT       -33.1820  -73.1660   -8.5830 O         1 <0>         0.0000
  32886 WAT       -33.1820  -73.1660   -8.3330 O         1 <0>         0.0000
  32887 WAT       -33.1820  -73.1660   -8.0830 O         1 <0>         0.0000
  32888 WAT       -33.1820  -73.1660   -7.8330 O         1 <0>         0.0000
  32889 WAT       -33.1820  -73.1660   -7.5830 O         1 <0>         0.0004
  32890 WAT       -33.1820  -73.1660   -7.3330 O         1 <0>         0.0020
  32891 WAT       -33.1820  -73.1660   -7.0830 O         1 <0>         0.0054
  32892 WAT       -33.1820  -73.1660   -6.8330 O         1 <0>         0.0096
  32893 WAT       -33.1820  -73.1660   -6.5830 O         1 <0>         0.0121
  32894 WAT       -33.1820  -73.1660   -6.3330 O         1 <0>         0.0126
  32895 WAT       -33.1820  -73.1660   -6.0830 O         1 <0>         0.0131
  32896 WAT       -33.1820  -73.1660   -5.8330 O         1 <0>         0.0145
  32897 WAT       -33.1820  -73.1660   -5.5830 O         1 <0>         0.0156
  32898 WAT       -33.1820  -73.1660   -5.3330 O         1 <0>         0.0148
  32899 WAT       -33.1820  -73.1660   -5.0830 O         1 <0>         0.0115
  32900 WAT       -33.1820  -73.1660   -4.8330 O         1 <0>         0.0070
  32901 WAT       -33.1820  -73.1660   -4.5830 O         1 <0>         0.0036
  32902 WAT       -33.1820  -73.1660   -4.3330 O         1 <0>         0.0025
  32903 WAT       -33.1820  -73.1660   -4.0830 O         1 <0>         0.0071
  32904 WAT       -33.1820  -73.1660   -3.8330 O         1 <0>         0.0281
  32905 WAT       -33.1820  -73.1660   -3.5830 O         1 <0>         0.0779
  32906 WAT       -33.1820  -73.1660   -3.3330 O         1 <0>         0.1467
  32907 WAT       -33.1820  -73.1660   -3.0830 O         1 <0>         0.1887
  32908 WAT       -33.1820  -73.1660   -2.8330 O         1 <0>         0.1667
  32909 WAT       -33.1820  -73.1660   -2.5830 O         1 <0>         0.1025
  32910 WAT       -33.1820  -73.1660   -2.3330 O         1 <0>         0.0445
  32911 WAT       -33.1820  -73.1660   -2.0830 O         1 <0>         0.0134
  32912 WAT       -33.1820  -73.1660   -1.8330 O         1 <0>         0.0028
  32913 WAT       -33.1820  -73.1660   -1.5830 O         1 <0>         0.0003
  32914 WAT       -33.1820  -73.1660   -1.3330 O         1 <0>         0.0000
  32915 WAT       -33.1820  -73.1660   -1.0830 O         1 <0>         0.0000
  32916 WAT       -33.1820  -73.1660   -0.8330 O         1 <0>         0.0000
  32917 WAT       -33.1820  -73.1660   -0.5830 O         1 <0>         0.0000
  32918 WAT       -33.1820  -73.1660   -0.3330 O         1 <0>         0.0000
  32919 WAT       -33.1820  -73.1660   -0.0830 O         1 <0>         0.0000
  32920 WAT       -33.1820  -72.9160   -9.8330 O         1 <0>         0.0000
  32921 WAT       -33.1820  -72.9160   -9.5830 O         1 <0>         0.0000
  32922 WAT       -33.1820  -72.9160   -9.3330 O         1 <0>         0.0000
  32923 WAT       -33.1820  -72.9160   -9.0830 O         1 <0>         0.0000
  32924 WAT       -33.1820  -72.9160   -8.8330 O         1 <0>         0.0000
  32925 WAT       -33.1820  -72.9160   -8.5830 O         1 <0>         0.0000
  32926 WAT       -33.1820  -72.9160   -8.3330 O         1 <0>         0.0000
  32927 WAT       -33.1820  -72.9160   -8.0830 O         1 <0>         0.0000
  32928 WAT       -33.1820  -72.9160   -7.8330 O         1 <0>         0.0001
  32929 WAT       -33.1820  -72.9160   -7.5830 O         1 <0>         0.0007
  32930 WAT       -33.1820  -72.9160   -7.3330 O         1 <0>         0.0028
  32931 WAT       -33.1820  -72.9160   -7.0830 O         1 <0>         0.0070
  32932 WAT       -33.1820  -72.9160   -6.8330 O         1 <0>         0.0110
  32933 WAT       -33.1820  -72.9160   -6.5830 O         1 <0>         0.0114
  32934 WAT       -33.1820  -72.9160   -6.3330 O         1 <0>         0.0090
  32935 WAT       -33.1820  -72.9160   -6.0830 O         1 <0>         0.0072
  32936 WAT       -33.1820  -72.9160   -5.8330 O         1 <0>         0.0072
  32937 WAT       -33.1820  -72.9160   -5.5830 O         1 <0>         0.0080
  32938 WAT       -33.1820  -72.9160   -5.3330 O         1 <0>         0.0080
  32939 WAT       -33.1820  -72.9160   -5.0830 O         1 <0>         0.0068
  32940 WAT       -33.1820  -72.9160   -4.8330 O         1 <0>         0.0048
  32941 WAT       -33.1820  -72.9160   -4.5830 O         1 <0>         0.0030
  32942 WAT       -33.1820  -72.9160   -4.3330 O         1 <0>         0.0021
  32943 WAT       -33.1820  -72.9160   -4.0830 O         1 <0>         0.0049
  32944 WAT       -33.1820  -72.9160   -3.8330 O         1 <0>         0.0191
  32945 WAT       -33.1820  -72.9160   -3.5830 O         1 <0>         0.0536
  32946 WAT       -33.1820  -72.9160   -3.3330 O         1 <0>         0.1011
  32947 WAT       -33.1820  -72.9160   -3.0830 O         1 <0>         0.1283
  32948 WAT       -33.1820  -72.9160   -2.8330 O         1 <0>         0.1096
  32949 WAT       -33.1820  -72.9160   -2.5830 O         1 <0>         0.0636
  32950 WAT       -33.1820  -72.9160   -2.3330 O         1 <0>         0.0252
  32951 WAT       -33.1820  -72.9160   -2.0830 O         1 <0>         0.0067
  32952 WAT       -33.1820  -72.9160   -1.8330 O         1 <0>         0.0013
  32953 WAT       -33.1820  -72.9160   -1.5830 O         1 <0>         0.0001
  32954 WAT       -33.1820  -72.9160   -1.3330 O         1 <0>         0.0000
  32955 WAT       -33.1820  -72.9160   -1.0830 O         1 <0>         0.0000
  32956 WAT       -33.1820  -72.9160   -0.8330 O         1 <0>         0.0000
  32957 WAT       -33.1820  -72.9160   -0.5830 O         1 <0>         0.0000
  32958 WAT       -33.1820  -72.9160   -0.3330 O         1 <0>         0.0000
  32959 WAT       -33.1820  -72.9160   -0.0830 O         1 <0>         0.0000
  32960 WAT       -33.1820  -72.6660   -9.8330 O         1 <0>         0.0000
  32961 WAT       -33.1820  -72.6660   -9.5830 O         1 <0>         0.0000
  32962 WAT       -33.1820  -72.6660   -9.3330 O         1 <0>         0.0000
  32963 WAT       -33.1820  -72.6660   -9.0830 O         1 <0>         0.0000
  32964 WAT       -33.1820  -72.6660   -8.8330 O         1 <0>         0.0000
  32965 WAT       -33.1820  -72.6660   -8.5830 O         1 <0>         0.0000
  32966 WAT       -33.1820  -72.6660   -8.3330 O         1 <0>         0.0000
  32967 WAT       -33.1820  -72.6660   -8.0830 O         1 <0>         0.0000
  32968 WAT       -33.1820  -72.6660   -7.8330 O         1 <0>         0.0001
  32969 WAT       -33.1820  -72.6660   -7.5830 O         1 <0>         0.0009
  32970 WAT       -33.1820  -72.6660   -7.3330 O         1 <0>         0.0034
  32971 WAT       -33.1820  -72.6660   -7.0830 O         1 <0>         0.0078
  32972 WAT       -33.1820  -72.6660   -6.8330 O         1 <0>         0.0112
  32973 WAT       -33.1820  -72.6660   -6.5830 O         1 <0>         0.0103
  32974 WAT       -33.1820  -72.6660   -6.3330 O         1 <0>         0.0066
  32975 WAT       -33.1820  -72.6660   -6.0830 O         1 <0>         0.0040
  32976 WAT       -33.1820  -72.6660   -5.8330 O         1 <0>         0.0036
  32977 WAT       -33.1820  -72.6660   -5.5830 O         1 <0>         0.0041
  32978 WAT       -33.1820  -72.6660   -5.3330 O         1 <0>         0.0045
  32979 WAT       -33.1820  -72.6660   -5.0830 O         1 <0>         0.0043
  32980 WAT       -33.1820  -72.6660   -4.8330 O         1 <0>         0.0036
  32981 WAT       -33.1820  -72.6660   -4.5830 O         1 <0>         0.0027
  32982 WAT       -33.1820  -72.6660   -4.3330 O         1 <0>         0.0019
  32983 WAT       -33.1820  -72.6660   -4.0830 O         1 <0>         0.0031
  32984 WAT       -33.1820  -72.6660   -3.8330 O         1 <0>         0.0115
  32985 WAT       -33.1820  -72.6660   -3.5830 O         1 <0>         0.0331
  32986 WAT       -33.1820  -72.6660   -3.3330 O         1 <0>         0.0634
  32987 WAT       -33.1820  -72.6660   -3.0830 O         1 <0>         0.0807
  32988 WAT       -33.1820  -72.6660   -2.8330 O         1 <0>         0.0682
  32989 WAT       -33.1820  -72.6660   -2.5830 O         1 <0>         0.0386
  32990 WAT       -33.1820  -72.6660   -2.3330 O         1 <0>         0.0148
  32991 WAT       -33.1820  -72.6660   -2.0830 O         1 <0>         0.0038
  32992 WAT       -33.1820  -72.6660   -1.8330 O         1 <0>         0.0006
  32993 WAT       -33.1820  -72.6660   -1.5830 O         1 <0>         0.0000
  32994 WAT       -33.1820  -72.6660   -1.3330 O         1 <0>         0.0000
  32995 WAT       -33.1820  -72.6660   -1.0830 O         1 <0>         0.0000
  32996 WAT       -33.1820  -72.6660   -0.8330 O         1 <0>         0.0000
  32997 WAT       -33.1820  -72.6660   -0.5830 O         1 <0>         0.0000
  32998 WAT       -33.1820  -72.6660   -0.3330 O         1 <0>         0.0000
  32999 WAT       -33.1820  -72.6660   -0.0830 O         1 <0>         0.0000
  33000 WAT       -33.1820  -72.4160   -9.8330 O         1 <0>         0.0000
  33001 WAT       -33.1820  -72.4160   -9.5830 O         1 <0>         0.0000
  33002 WAT       -33.1820  -72.4160   -9.3330 O         1 <0>         0.0000
  33003 WAT       -33.1820  -72.4160   -9.0830 O         1 <0>         0.0000
  33004 WAT       -33.1820  -72.4160   -8.8330 O         1 <0>         0.0000
  33005 WAT       -33.1820  -72.4160   -8.5830 O         1 <0>         0.0000
  33006 WAT       -33.1820  -72.4160   -8.3330 O         1 <0>         0.0000
  33007 WAT       -33.1820  -72.4160   -8.0830 O         1 <0>         0.0000
  33008 WAT       -33.1820  -72.4160   -7.8330 O         1 <0>         0.0001
  33009 WAT       -33.1820  -72.4160   -7.5830 O         1 <0>         0.0010
  33010 WAT       -33.1820  -72.4160   -7.3330 O         1 <0>         0.0034
  33011 WAT       -33.1820  -72.4160   -7.0830 O         1 <0>         0.0073
  33012 WAT       -33.1820  -72.4160   -6.8330 O         1 <0>         0.0098
  33013 WAT       -33.1820  -72.4160   -6.5830 O         1 <0>         0.0084
  33014 WAT       -33.1820  -72.4160   -6.3330 O         1 <0>         0.0050
  33015 WAT       -33.1820  -72.4160   -6.0830 O         1 <0>         0.0030
  33016 WAT       -33.1820  -72.4160   -5.8330 O         1 <0>         0.0029
  33017 WAT       -33.1820  -72.4160   -5.5830 O         1 <0>         0.0034
  33018 WAT       -33.1820  -72.4160   -5.3330 O         1 <0>         0.0036
  33019 WAT       -33.1820  -72.4160   -5.0830 O         1 <0>         0.0033
  33020 WAT       -33.1820  -72.4160   -4.8330 O         1 <0>         0.0028
  33021 WAT       -33.1820  -72.4160   -4.5830 O         1 <0>         0.0021
  33022 WAT       -33.1820  -72.4160   -4.3330 O         1 <0>         0.0015
  33023 WAT       -33.1820  -72.4160   -4.0830 O         1 <0>         0.0017
  33024 WAT       -33.1820  -72.4160   -3.8330 O         1 <0>         0.0059
  33025 WAT       -33.1820  -72.4160   -3.5830 O         1 <0>         0.0170
  33026 WAT       -33.1820  -72.4160   -3.3330 O         1 <0>         0.0330
  33027 WAT       -33.1820  -72.4160   -3.0830 O         1 <0>         0.0420
  33028 WAT       -33.1820  -72.4160   -2.8330 O         1 <0>         0.0353
  33029 WAT       -33.1820  -72.4160   -2.5830 O         1 <0>         0.0197
  33030 WAT       -33.1820  -72.4160   -2.3330 O         1 <0>         0.0074
  33031 WAT       -33.1820  -72.4160   -2.0830 O         1 <0>         0.0017
  33032 WAT       -33.1820  -72.4160   -1.8330 O         1 <0>         0.0002
  33033 WAT       -33.1820  -72.4160   -1.5830 O         1 <0>         0.0000
  33034 WAT       -33.1820  -72.4160   -1.3330 O         1 <0>         0.0000
  33035 WAT       -33.1820  -72.4160   -1.0830 O         1 <0>         0.0000
  33036 WAT       -33.1820  -72.4160   -0.8330 O         1 <0>         0.0000
  33037 WAT       -33.1820  -72.4160   -0.5830 O         1 <0>         0.0000
  33038 WAT       -33.1820  -72.4160   -0.3330 O         1 <0>         0.0000
  33039 WAT       -33.1820  -72.4160   -0.0830 O         1 <0>         0.0000
  33040 WAT       -33.1820  -72.1660   -9.8330 O         1 <0>         0.0000
  33041 WAT       -33.1820  -72.1660   -9.5830 O         1 <0>         0.0000
  33042 WAT       -33.1820  -72.1660   -9.3330 O         1 <0>         0.0000
  33043 WAT       -33.1820  -72.1660   -9.0830 O         1 <0>         0.0000
  33044 WAT       -33.1820  -72.1660   -8.8330 O         1 <0>         0.0000
  33045 WAT       -33.1820  -72.1660   -8.5830 O         1 <0>         0.0000
  33046 WAT       -33.1820  -72.1660   -8.3330 O         1 <0>         0.0000
  33047 WAT       -33.1820  -72.1660   -8.0830 O         1 <0>         0.0000
  33048 WAT       -33.1820  -72.1660   -7.8330 O         1 <0>         0.0001
  33049 WAT       -33.1820  -72.1660   -7.5830 O         1 <0>         0.0008
  33050 WAT       -33.1820  -72.1660   -7.3330 O         1 <0>         0.0028
  33051 WAT       -33.1820  -72.1660   -7.0830 O         1 <0>         0.0056
  33052 WAT       -33.1820  -72.1660   -6.8330 O         1 <0>         0.0072
  33053 WAT       -33.1820  -72.1660   -6.5830 O         1 <0>         0.0060
  33054 WAT       -33.1820  -72.1660   -6.3330 O         1 <0>         0.0040
  33055 WAT       -33.1820  -72.1660   -6.0830 O         1 <0>         0.0033
  33056 WAT       -33.1820  -72.1660   -5.8330 O         1 <0>         0.0038
  33057 WAT       -33.1820  -72.1660   -5.5830 O         1 <0>         0.0042
  33058 WAT       -33.1820  -72.1660   -5.3330 O         1 <0>         0.0037
  33059 WAT       -33.1820  -72.1660   -5.0830 O         1 <0>         0.0028
  33060 WAT       -33.1820  -72.1660   -4.8330 O         1 <0>         0.0019
  33061 WAT       -33.1820  -72.1660   -4.5830 O         1 <0>         0.0013
  33062 WAT       -33.1820  -72.1660   -4.3330 O         1 <0>         0.0008
  33063 WAT       -33.1820  -72.1660   -4.0830 O         1 <0>         0.0007
  33064 WAT       -33.1820  -72.1660   -3.8330 O         1 <0>         0.0021
  33065 WAT       -33.1820  -72.1660   -3.5830 O         1 <0>         0.0064
  33066 WAT       -33.1820  -72.1660   -3.3330 O         1 <0>         0.0124
  33067 WAT       -33.1820  -72.1660   -3.0830 O         1 <0>         0.0158
  33068 WAT       -33.1820  -72.1660   -2.8330 O         1 <0>         0.0131
  33069 WAT       -33.1820  -72.1660   -2.5830 O         1 <0>         0.0072
  33070 WAT       -33.1820  -72.1660   -2.3330 O         1 <0>         0.0025
  33071 WAT       -33.1820  -72.1660   -2.0830 O         1 <0>         0.0005
  33072 WAT       -33.1820  -72.1660   -1.8330 O         1 <0>         0.0000
  33073 WAT       -33.1820  -72.1660   -1.5830 O         1 <0>         0.0000
  33074 WAT       -33.1820  -72.1660   -1.3330 O         1 <0>         0.0000
  33075 WAT       -33.1820  -72.1660   -1.0830 O         1 <0>         0.0000
  33076 WAT       -33.1820  -72.1660   -0.8330 O         1 <0>         0.0000
  33077 WAT       -33.1820  -72.1660   -0.5830 O         1 <0>         0.0000
  33078 WAT       -33.1820  -72.1660   -0.3330 O         1 <0>         0.0000
  33079 WAT       -33.1820  -72.1660   -0.0830 O         1 <0>         0.0000
  33080 WAT       -33.1820  -71.9160   -9.8330 O         1 <0>         0.0000
  33081 WAT       -33.1820  -71.9160   -9.5830 O         1 <0>         0.0000
  33082 WAT       -33.1820  -71.9160   -9.3330 O         1 <0>         0.0000
  33083 WAT       -33.1820  -71.9160   -9.0830 O         1 <0>         0.0000
  33084 WAT       -33.1820  -71.9160   -8.8330 O         1 <0>         0.0000
  33085 WAT       -33.1820  -71.9160   -8.5830 O         1 <0>         0.0000
  33086 WAT       -33.1820  -71.9160   -8.3330 O         1 <0>         0.0000
  33087 WAT       -33.1820  -71.9160   -8.0830 O         1 <0>         0.0000
  33088 WAT       -33.1820  -71.9160   -7.8330 O         1 <0>         0.0001
  33089 WAT       -33.1820  -71.9160   -7.5830 O         1 <0>         0.0008
  33090 WAT       -33.1820  -71.9160   -7.3330 O         1 <0>         0.0023
  33091 WAT       -33.1820  -71.9160   -7.0830 O         1 <0>         0.0043
  33092 WAT       -33.1820  -71.9160   -6.8330 O         1 <0>         0.0051
  33093 WAT       -33.1820  -71.9160   -6.5830 O         1 <0>         0.0048
  33094 WAT       -33.1820  -71.9160   -6.3330 O         1 <0>         0.0048
  33095 WAT       -33.1820  -71.9160   -6.0830 O         1 <0>         0.0056
  33096 WAT       -33.1820  -71.9160   -5.8330 O         1 <0>         0.0059
  33097 WAT       -33.1820  -71.9160   -5.5830 O         1 <0>         0.0050
  33098 WAT       -33.1820  -71.9160   -5.3330 O         1 <0>         0.0035
  33099 WAT       -33.1820  -71.9160   -5.0830 O         1 <0>         0.0021
  33100 WAT       -33.1820  -71.9160   -4.8330 O         1 <0>         0.0011
  33101 WAT       -33.1820  -71.9160   -4.5830 O         1 <0>         0.0006
  33102 WAT       -33.1820  -71.9160   -4.3330 O         1 <0>         0.0003
  33103 WAT       -33.1820  -71.9160   -4.0830 O         1 <0>         0.0002
  33104 WAT       -33.1820  -71.9160   -3.8330 O         1 <0>         0.0004
  33105 WAT       -33.1820  -71.9160   -3.5830 O         1 <0>         0.0015
  33106 WAT       -33.1820  -71.9160   -3.3330 O         1 <0>         0.0030
  33107 WAT       -33.1820  -71.9160   -3.0830 O         1 <0>         0.0038
  33108 WAT       -33.1820  -71.9160   -2.8330 O         1 <0>         0.0031
  33109 WAT       -33.1820  -71.9160   -2.5830 O         1 <0>         0.0015
  33110 WAT       -33.1820  -71.9160   -2.3330 O         1 <0>         0.0005
  33111 WAT       -33.1820  -71.9160   -2.0830 O         1 <0>         0.0001
  33112 WAT       -33.1820  -71.9160   -1.8330 O         1 <0>         0.0000
  33113 WAT       -33.1820  -71.9160   -1.5830 O         1 <0>         0.0000
  33114 WAT       -33.1820  -71.9160   -1.3330 O         1 <0>         0.0000
  33115 WAT       -33.1820  -71.9160   -1.0830 O         1 <0>         0.0000
  33116 WAT       -33.1820  -71.9160   -0.8330 O         1 <0>         0.0000
  33117 WAT       -33.1820  -71.9160   -0.5830 O         1 <0>         0.0000
  33118 WAT       -33.1820  -71.9160   -0.3330 O         1 <0>         0.0000
  33119 WAT       -33.1820  -71.9160   -0.0830 O         1 <0>         0.0000
  33120 WAT       -33.1820  -71.6660   -9.8330 O         1 <0>         0.0000
  33121 WAT       -33.1820  -71.6660   -9.5830 O         1 <0>         0.0000
  33122 WAT       -33.1820  -71.6660   -9.3330 O         1 <0>         0.0000
  33123 WAT       -33.1820  -71.6660   -9.0830 O         1 <0>         0.0000
  33124 WAT       -33.1820  -71.6660   -8.8330 O         1 <0>         0.0000
  33125 WAT       -33.1820  -71.6660   -8.5830 O         1 <0>         0.0000
  33126 WAT       -33.1820  -71.6660   -8.3330 O         1 <0>         0.0000
  33127 WAT       -33.1820  -71.6660   -8.0830 O         1 <0>         0.0000
  33128 WAT       -33.1820  -71.6660   -7.8330 O         1 <0>         0.0003
  33129 WAT       -33.1820  -71.6660   -7.5830 O         1 <0>         0.0012
  33130 WAT       -33.1820  -71.6660   -7.3330 O         1 <0>         0.0031
  33131 WAT       -33.1820  -71.6660   -7.0830 O         1 <0>         0.0050
  33132 WAT       -33.1820  -71.6660   -6.8330 O         1 <0>         0.0062
  33133 WAT       -33.1820  -71.6660   -6.5830 O         1 <0>         0.0084
  33134 WAT       -33.1820  -71.6660   -6.3330 O         1 <0>         0.0118
  33135 WAT       -33.1820  -71.6660   -6.0830 O         1 <0>         0.0134
  33136 WAT       -33.1820  -71.6660   -5.8330 O         1 <0>         0.0109
  33137 WAT       -33.1820  -71.6660   -5.5830 O         1 <0>         0.0064
  33138 WAT       -33.1820  -71.6660   -5.3330 O         1 <0>         0.0029
  33139 WAT       -33.1820  -71.6660   -5.0830 O         1 <0>         0.0012
  33140 WAT       -33.1820  -71.6660   -4.8330 O         1 <0>         0.0004
  33141 WAT       -33.1820  -71.6660   -4.5830 O         1 <0>         0.0002
  33142 WAT       -33.1820  -71.6660   -4.3330 O         1 <0>         0.0001
  33143 WAT       -33.1820  -71.6660   -4.0830 O         1 <0>         0.0000
  33144 WAT       -33.1820  -71.6660   -3.8330 O         1 <0>         0.0000
  33145 WAT       -33.1820  -71.6660   -3.5830 O         1 <0>         0.0001
  33146 WAT       -33.1820  -71.6660   -3.3330 O         1 <0>         0.0003
  33147 WAT       -33.1820  -71.6660   -3.0830 O         1 <0>         0.0004
  33148 WAT       -33.1820  -71.6660   -2.8330 O         1 <0>         0.0003
  33149 WAT       -33.1820  -71.6660   -2.5830 O         1 <0>         0.0001
  33150 WAT       -33.1820  -71.6660   -2.3330 O         1 <0>         0.0000
  33151 WAT       -33.1820  -71.6660   -2.0830 O         1 <0>         0.0000
  33152 WAT       -33.1820  -71.6660   -1.8330 O         1 <0>         0.0000
  33153 WAT       -33.1820  -71.6660   -1.5830 O         1 <0>         0.0000
  33154 WAT       -33.1820  -71.6660   -1.3330 O         1 <0>         0.0000
  33155 WAT       -33.1820  -71.6660   -1.0830 O         1 <0>         0.0000
  33156 WAT       -33.1820  -71.6660   -0.8330 O         1 <0>         0.0000
  33157 WAT       -33.1820  -71.6660   -0.5830 O         1 <0>         0.0000
  33158 WAT       -33.1820  -71.6660   -0.3330 O         1 <0>         0.0000
  33159 WAT       -33.1820  -71.6660   -0.0830 O         1 <0>         0.0000
  33160 WAT       -33.1820  -71.4160   -9.8330 O         1 <0>         0.0000
  33161 WAT       -33.1820  -71.4160   -9.5830 O         1 <0>         0.0000
  33162 WAT       -33.1820  -71.4160   -9.3330 O         1 <0>         0.0000
  33163 WAT       -33.1820  -71.4160   -9.0830 O         1 <0>         0.0000
  33164 WAT       -33.1820  -71.4160   -8.8330 O         1 <0>         0.0000
  33165 WAT       -33.1820  -71.4160   -8.5830 O         1 <0>         0.0000
  33166 WAT       -33.1820  -71.4160   -8.3330 O         1 <0>         0.0000
  33167 WAT       -33.1820  -71.4160   -8.0830 O         1 <0>         0.0001
  33168 WAT       -33.1820  -71.4160   -7.8330 O         1 <0>         0.0008
  33169 WAT       -33.1820  -71.4160   -7.5830 O         1 <0>         0.0028
  33170 WAT       -33.1820  -71.4160   -7.3330 O         1 <0>         0.0062
  33171 WAT       -33.1820  -71.4160   -7.0830 O         1 <0>         0.0097
  33172 WAT       -33.1820  -71.4160   -6.8330 O         1 <0>         0.0147
  33173 WAT       -33.1820  -71.4160   -6.5830 O         1 <0>         0.0242
  33174 WAT       -33.1820  -71.4160   -6.3330 O         1 <0>         0.0347
  33175 WAT       -33.1820  -71.4160   -6.0830 O         1 <0>         0.0356
  33176 WAT       -33.1820  -71.4160   -5.8330 O         1 <0>         0.0242
  33177 WAT       -33.1820  -71.4160   -5.5830 O         1 <0>         0.0106
  33178 WAT       -33.1820  -71.4160   -5.3330 O         1 <0>         0.0030
  33179 WAT       -33.1820  -71.4160   -5.0830 O         1 <0>         0.0006
  33180 WAT       -33.1820  -71.4160   -4.8330 O         1 <0>         0.0001
  33181 WAT       -33.1820  -71.4160   -4.5830 O         1 <0>         0.0000
  33182 WAT       -33.1820  -71.4160   -4.3330 O         1 <0>         0.0000
  33183 WAT       -33.1820  -71.4160   -4.0830 O         1 <0>         0.0000
  33184 WAT       -33.1820  -71.4160   -3.8330 O         1 <0>         0.0000
  33185 WAT       -33.1820  -71.4160   -3.5830 O         1 <0>         0.0000
  33186 WAT       -33.1820  -71.4160   -3.3330 O         1 <0>         0.0000
  33187 WAT       -33.1820  -71.4160   -3.0830 O         1 <0>         0.0000
  33188 WAT       -33.1820  -71.4160   -2.8330 O         1 <0>         0.0000
  33189 WAT       -33.1820  -71.4160   -2.5830 O         1 <0>         0.0000
  33190 WAT       -33.1820  -71.4160   -2.3330 O         1 <0>         0.0000
  33191 WAT       -33.1820  -71.4160   -2.0830 O         1 <0>         0.0000
  33192 WAT       -33.1820  -71.4160   -1.8330 O         1 <0>         0.0000
  33193 WAT       -33.1820  -71.4160   -1.5830 O         1 <0>         0.0000
  33194 WAT       -33.1820  -71.4160   -1.3330 O         1 <0>         0.0000
  33195 WAT       -33.1820  -71.4160   -1.0830 O         1 <0>         0.0000
  33196 WAT       -33.1820  -71.4160   -0.8330 O         1 <0>         0.0000
  33197 WAT       -33.1820  -71.4160   -0.5830 O         1 <0>         0.0000
  33198 WAT       -33.1820  -71.4160   -0.3330 O         1 <0>         0.0000
  33199 WAT       -33.1820  -71.4160   -0.0830 O         1 <0>         0.0000
  33200 WAT       -33.1820  -71.1660   -9.8330 O         1 <0>         0.0000
  33201 WAT       -33.1820  -71.1660   -9.5830 O         1 <0>         0.0000
  33202 WAT       -33.1820  -71.1660   -9.3330 O         1 <0>         0.0000
  33203 WAT       -33.1820  -71.1660   -9.0830 O         1 <0>         0.0000
  33204 WAT       -33.1820  -71.1660   -8.8330 O         1 <0>         0.0000
  33205 WAT       -33.1820  -71.1660   -8.5830 O         1 <0>         0.0000
  33206 WAT       -33.1820  -71.1660   -8.3330 O         1 <0>         0.0000
  33207 WAT       -33.1820  -71.1660   -8.0830 O         1 <0>         0.0003
  33208 WAT       -33.1820  -71.1660   -7.8330 O         1 <0>         0.0020
  33209 WAT       -33.1820  -71.1660   -7.5830 O         1 <0>         0.0062
  33210 WAT       -33.1820  -71.1660   -7.3330 O         1 <0>         0.0130
  33211 WAT       -33.1820  -71.1660   -7.0830 O         1 <0>         0.0220
  33212 WAT       -33.1820  -71.1660   -6.8330 O         1 <0>         0.0384
  33213 WAT       -33.1820  -71.1660   -6.5830 O         1 <0>         0.0655
  33214 WAT       -33.1820  -71.1660   -6.3330 O         1 <0>         0.0884
  33215 WAT       -33.1820  -71.1660   -6.0830 O         1 <0>         0.0826
  33216 WAT       -33.1820  -71.1660   -5.8330 O         1 <0>         0.0504
  33217 WAT       -33.1820  -71.1660   -5.5830 O         1 <0>         0.0192
  33218 WAT       -33.1820  -71.1660   -5.3330 O         1 <0>         0.0040
  33219 WAT       -33.1820  -71.1660   -5.0830 O         1 <0>         0.0003
  33220 WAT       -33.1820  -71.1660   -4.8330 O         1 <0>         0.0000
  33221 WAT       -33.1820  -71.1660   -4.5830 O         1 <0>         0.0000
  33222 WAT       -33.1820  -71.1660   -4.3330 O         1 <0>         0.0000
  33223 WAT       -33.1820  -71.1660   -4.0830 O         1 <0>         0.0000
  33224 WAT       -33.1820  -71.1660   -3.8330 O         1 <0>         0.0000
  33225 WAT       -33.1820  -71.1660   -3.5830 O         1 <0>         0.0000
  33226 WAT       -33.1820  -71.1660   -3.3330 O         1 <0>         0.0000
  33227 WAT       -33.1820  -71.1660   -3.0830 O         1 <0>         0.0000
  33228 WAT       -33.1820  -71.1660   -2.8330 O         1 <0>         0.0000
  33229 WAT       -33.1820  -71.1660   -2.5830 O         1 <0>         0.0000
  33230 WAT       -33.1820  -71.1660   -2.3330 O         1 <0>         0.0000
  33231 WAT       -33.1820  -71.1660   -2.0830 O         1 <0>         0.0000
  33232 WAT       -33.1820  -71.1660   -1.8330 O         1 <0>         0.0000
  33233 WAT       -33.1820  -71.1660   -1.5830 O         1 <0>         0.0000
  33234 WAT       -33.1820  -71.1660   -1.3330 O         1 <0>         0.0000
  33235 WAT       -33.1820  -71.1660   -1.0830 O         1 <0>         0.0000
  33236 WAT       -33.1820  -71.1660   -0.8330 O         1 <0>         0.0000
  33237 WAT       -33.1820  -71.1660   -0.5830 O         1 <0>         0.0000
  33238 WAT       -33.1820  -71.1660   -0.3330 O         1 <0>         0.0000
  33239 WAT       -33.1820  -71.1660   -0.0830 O         1 <0>         0.0000
  33240 WAT       -33.1820  -70.9160   -9.8330 O         1 <0>         0.0000
  33241 WAT       -33.1820  -70.9160   -9.5830 O         1 <0>         0.0000
  33242 WAT       -33.1820  -70.9160   -9.3330 O         1 <0>         0.0000
  33243 WAT       -33.1820  -70.9160   -9.0830 O         1 <0>         0.0000
  33244 WAT       -33.1820  -70.9160   -8.8330 O         1 <0>         0.0000
  33245 WAT       -33.1820  -70.9160   -8.5830 O         1 <0>         0.0000
  33246 WAT       -33.1820  -70.9160   -8.3330 O         1 <0>         0.0001
  33247 WAT       -33.1820  -70.9160   -8.0830 O         1 <0>         0.0008
  33248 WAT       -33.1820  -70.9160   -7.8330 O         1 <0>         0.0037
  33249 WAT       -33.1820  -70.9160   -7.5830 O         1 <0>         0.0110
  33250 WAT       -33.1820  -70.9160   -7.3330 O         1 <0>         0.0235
  33251 WAT       -33.1820  -70.9160   -7.0830 O         1 <0>         0.0445
  33252 WAT       -33.1820  -70.9160   -6.8330 O         1 <0>         0.0843
  33253 WAT       -33.1820  -70.9160   -6.5830 O         1 <0>         0.1419
  33254 WAT       -33.1820  -70.9160   -6.3330 O         1 <0>         0.1796
  33255 WAT       -33.1820  -70.9160   -6.0830 O         1 <0>         0.1553
  33256 WAT       -33.1820  -70.9160   -5.8330 O         1 <0>         0.0876
  33257 WAT       -33.1820  -70.9160   -5.5830 O         1 <0>         0.0307
  33258 WAT       -33.1820  -70.9160   -5.3330 O         1 <0>         0.0056
  33259 WAT       -33.1820  -70.9160   -5.0830 O         1 <0>         0.0003
  33260 WAT       -33.1820  -70.9160   -4.8330 O         1 <0>         0.0000
  33261 WAT       -33.1820  -70.9160   -4.5830 O         1 <0>         0.0000
  33262 WAT       -33.1820  -70.9160   -4.3330 O         1 <0>         0.0000
  33263 WAT       -33.1820  -70.9160   -4.0830 O         1 <0>         0.0000
  33264 WAT       -33.1820  -70.9160   -3.8330 O         1 <0>         0.0000
  33265 WAT       -33.1820  -70.9160   -3.5830 O         1 <0>         0.0000
  33266 WAT       -33.1820  -70.9160   -3.3330 O         1 <0>         0.0000
  33267 WAT       -33.1820  -70.9160   -3.0830 O         1 <0>         0.0000
  33268 WAT       -33.1820  -70.9160   -2.8330 O         1 <0>         0.0000
  33269 WAT       -33.1820  -70.9160   -2.5830 O         1 <0>         0.0000
  33270 WAT       -33.1820  -70.9160   -2.3330 O         1 <0>         0.0000
  33271 WAT       -33.1820  -70.9160   -2.0830 O         1 <0>         0.0000
  33272 WAT       -33.1820  -70.9160   -1.8330 O         1 <0>         0.0000
  33273 WAT       -33.1820  -70.9160   -1.5830 O         1 <0>         0.0000
  33274 WAT       -33.1820  -70.9160   -1.3330 O         1 <0>         0.0000
  33275 WAT       -33.1820  -70.9160   -1.0830 O         1 <0>         0.0000
  33276 WAT       -33.1820  -70.9160   -0.8330 O         1 <0>         0.0000
  33277 WAT       -33.1820  -70.9160   -0.5830 O         1 <0>         0.0000
  33278 WAT       -33.1820  -70.9160   -0.3330 O         1 <0>         0.0000
  33279 WAT       -33.1820  -70.9160   -0.0830 O         1 <0>         0.0000
  33280 WAT       -33.1820  -70.6660   -9.8330 O         1 <0>         0.0000
  33281 WAT       -33.1820  -70.6660   -9.5830 O         1 <0>         0.0000
  33282 WAT       -33.1820  -70.6660   -9.3330 O         1 <0>         0.0000
  33283 WAT       -33.1820  -70.6660   -9.0830 O         1 <0>         0.0000
  33284 WAT       -33.1820  -70.6660   -8.8330 O         1 <0>         0.0000
  33285 WAT       -33.1820  -70.6660   -8.5830 O         1 <0>         0.0000
  33286 WAT       -33.1820  -70.6660   -8.3330 O         1 <0>         0.0001
  33287 WAT       -33.1820  -70.6660   -8.0830 O         1 <0>         0.0011
  33288 WAT       -33.1820  -70.6660   -7.8330 O         1 <0>         0.0051
  33289 WAT       -33.1820  -70.6660   -7.5830 O         1 <0>         0.0150
  33290 WAT       -33.1820  -70.6660   -7.3330 O         1 <0>         0.0340
  33291 WAT       -33.1820  -70.6660   -7.0830 O         1 <0>         0.0717
  33292 WAT       -33.1820  -70.6660   -6.8330 O         1 <0>         0.1431
  33293 WAT       -33.1820  -70.6660   -6.5830 O         1 <0>         0.2368
  33294 WAT       -33.1820  -70.6660   -6.3330 O         1 <0>         0.2845
  33295 WAT       -33.1820  -70.6660   -6.0830 O         1 <0>         0.2306
  33296 WAT       -33.1820  -70.6660   -5.8330 O         1 <0>         0.1219
  33297 WAT       -33.1820  -70.6660   -5.5830 O         1 <0>         0.0402
  33298 WAT       -33.1820  -70.6660   -5.3330 O         1 <0>         0.0066
  33299 WAT       -33.1820  -70.6660   -5.0830 O         1 <0>         0.0002
  33300 WAT       -33.1820  -70.6660   -4.8330 O         1 <0>         0.0000
  33301 WAT       -33.1820  -70.6660   -4.5830 O         1 <0>         0.0000
  33302 WAT       -33.1820  -70.6660   -4.3330 O         1 <0>         0.0000
  33303 WAT       -33.1820  -70.6660   -4.0830 O         1 <0>         0.0000
  33304 WAT       -33.1820  -70.6660   -3.8330 O         1 <0>         0.0000
  33305 WAT       -33.1820  -70.6660   -3.5830 O         1 <0>         0.0000
  33306 WAT       -33.1820  -70.6660   -3.3330 O         1 <0>         0.0000
  33307 WAT       -33.1820  -70.6660   -3.0830 O         1 <0>         0.0000
  33308 WAT       -33.1820  -70.6660   -2.8330 O         1 <0>         0.0000
  33309 WAT       -33.1820  -70.6660   -2.5830 O         1 <0>         0.0000
  33310 WAT       -33.1820  -70.6660   -2.3330 O         1 <0>         0.0000
  33311 WAT       -33.1820  -70.6660   -2.0830 O         1 <0>         0.0000
  33312 WAT       -33.1820  -70.6660   -1.8330 O         1 <0>         0.0000
  33313 WAT       -33.1820  -70.6660   -1.5830 O         1 <0>         0.0000
  33314 WAT       -33.1820  -70.6660   -1.3330 O         1 <0>         0.0000
  33315 WAT       -33.1820  -70.6660   -1.0830 O         1 <0>         0.0000
  33316 WAT       -33.1820  -70.6660   -0.8330 O         1 <0>         0.0000
  33317 WAT       -33.1820  -70.6660   -0.5830 O         1 <0>         0.0000
  33318 WAT       -33.1820  -70.6660   -0.3330 O         1 <0>         0.0000
  33319 WAT       -33.1820  -70.6660   -0.0830 O         1 <0>         0.0000
  33320 WAT       -33.1820  -70.4160   -9.8330 O         1 <0>         0.0000
  33321 WAT       -33.1820  -70.4160   -9.5830 O         1 <0>         0.0000
  33322 WAT       -33.1820  -70.4160   -9.3330 O         1 <0>         0.0000
  33323 WAT       -33.1820  -70.4160   -9.0830 O         1 <0>         0.0000
  33324 WAT       -33.1820  -70.4160   -8.8330 O         1 <0>         0.0000
  33325 WAT       -33.1820  -70.4160   -8.5830 O         1 <0>         0.0000
  33326 WAT       -33.1820  -70.4160   -8.3330 O         1 <0>         0.0001
  33327 WAT       -33.1820  -70.4160   -8.0830 O         1 <0>         0.0012
  33328 WAT       -33.1820  -70.4160   -7.8330 O         1 <0>         0.0051
  33329 WAT       -33.1820  -70.4160   -7.5830 O         1 <0>         0.0153
  33330 WAT       -33.1820  -70.4160   -7.3330 O         1 <0>         0.0377
  33331 WAT       -33.1820  -70.4160   -7.0830 O         1 <0>         0.0874
  33332 WAT       -33.1820  -70.4160   -6.8330 O         1 <0>         0.1814
  33333 WAT       -33.1820  -70.4160   -6.5830 O         1 <0>         0.2968
  33334 WAT       -33.1820  -70.4160   -6.3330 O         1 <0>         0.3431
  33335 WAT       -33.1820  -70.4160   -6.0830 O         1 <0>         0.2649
  33336 WAT       -33.1820  -70.4160   -5.8330 O         1 <0>         0.1328
  33337 WAT       -33.1820  -70.4160   -5.5830 O         1 <0>         0.0415
  33338 WAT       -33.1820  -70.4160   -5.3330 O         1 <0>         0.0062
  33339 WAT       -33.1820  -70.4160   -5.0830 O         1 <0>         0.0002
  33340 WAT       -33.1820  -70.4160   -4.8330 O         1 <0>         0.0000
  33341 WAT       -33.1820  -70.4160   -4.5830 O         1 <0>         0.0000
  33342 WAT       -33.1820  -70.4160   -4.3330 O         1 <0>         0.0000
  33343 WAT       -33.1820  -70.4160   -4.0830 O         1 <0>         0.0000
  33344 WAT       -33.1820  -70.4160   -3.8330 O         1 <0>         0.0000
  33345 WAT       -33.1820  -70.4160   -3.5830 O         1 <0>         0.0000
  33346 WAT       -33.1820  -70.4160   -3.3330 O         1 <0>         0.0000
  33347 WAT       -33.1820  -70.4160   -3.0830 O         1 <0>         0.0000
  33348 WAT       -33.1820  -70.4160   -2.8330 O         1 <0>         0.0000
  33349 WAT       -33.1820  -70.4160   -2.5830 O         1 <0>         0.0000
  33350 WAT       -33.1820  -70.4160   -2.3330 O         1 <0>         0.0000
  33351 WAT       -33.1820  -70.4160   -2.0830 O         1 <0>         0.0000
  33352 WAT       -33.1820  -70.4160   -1.8330 O         1 <0>         0.0000
  33353 WAT       -33.1820  -70.4160   -1.5830 O         1 <0>         0.0000
  33354 WAT       -33.1820  -70.4160   -1.3330 O         1 <0>         0.0000
  33355 WAT       -33.1820  -70.4160   -1.0830 O         1 <0>         0.0000
  33356 WAT       -33.1820  -70.4160   -0.8330 O         1 <0>         0.0000
  33357 WAT       -33.1820  -70.4160   -0.5830 O         1 <0>         0.0000
  33358 WAT       -33.1820  -70.4160   -0.3330 O         1 <0>         0.0000
  33359 WAT       -33.1820  -70.4160   -0.0830 O         1 <0>         0.0000
  33360 WAT       -33.1820  -70.1660   -9.8330 O         1 <0>         0.0000
  33361 WAT       -33.1820  -70.1660   -9.5830 O         1 <0>         0.0000
  33362 WAT       -33.1820  -70.1660   -9.3330 O         1 <0>         0.0000
  33363 WAT       -33.1820  -70.1660   -9.0830 O         1 <0>         0.0000
  33364 WAT       -33.1820  -70.1660   -8.8330 O         1 <0>         0.0000
  33365 WAT       -33.1820  -70.1660   -8.5830 O         1 <0>         0.0000
  33366 WAT       -33.1820  -70.1660   -8.3330 O         1 <0>         0.0001
  33367 WAT       -33.1820  -70.1660   -8.0830 O         1 <0>         0.0008
  33368 WAT       -33.1820  -70.1660   -7.8330 O         1 <0>         0.0037
  33369 WAT       -33.1820  -70.1660   -7.5830 O         1 <0>         0.0115
  33370 WAT       -33.1820  -70.1660   -7.3330 O         1 <0>         0.0310
  33371 WAT       -33.1820  -70.1660   -7.0830 O         1 <0>         0.0778
  33372 WAT       -33.1820  -70.1660   -6.8330 O         1 <0>         0.1668
  33373 WAT       -33.1820  -70.1660   -6.5830 O         1 <0>         0.2710
  33374 WAT       -33.1820  -70.1660   -6.3330 O         1 <0>         0.3056
  33375 WAT       -33.1820  -70.1660   -6.0830 O         1 <0>         0.2282
  33376 WAT       -33.1820  -70.1660   -5.8330 O         1 <0>         0.1101
  33377 WAT       -33.1820  -70.1660   -5.5830 O         1 <0>         0.0326
  33378 WAT       -33.1820  -70.1660   -5.3330 O         1 <0>         0.0045
  33379 WAT       -33.1820  -70.1660   -5.0830 O         1 <0>         0.0001
  33380 WAT       -33.1820  -70.1660   -4.8330 O         1 <0>         0.0000
  33381 WAT       -33.1820  -70.1660   -4.5830 O         1 <0>         0.0000
  33382 WAT       -33.1820  -70.1660   -4.3330 O         1 <0>         0.0000
  33383 WAT       -33.1820  -70.1660   -4.0830 O         1 <0>         0.0000
  33384 WAT       -33.1820  -70.1660   -3.8330 O         1 <0>         0.0000
  33385 WAT       -33.1820  -70.1660   -3.5830 O         1 <0>         0.0000
  33386 WAT       -33.1820  -70.1660   -3.3330 O         1 <0>         0.0000
  33387 WAT       -33.1820  -70.1660   -3.0830 O         1 <0>         0.0000
  33388 WAT       -33.1820  -70.1660   -2.8330 O         1 <0>         0.0000
  33389 WAT       -33.1820  -70.1660   -2.5830 O         1 <0>         0.0000
  33390 WAT       -33.1820  -70.1660   -2.3330 O         1 <0>         0.0000
  33391 WAT       -33.1820  -70.1660   -2.0830 O         1 <0>         0.0000
  33392 WAT       -33.1820  -70.1660   -1.8330 O         1 <0>         0.0000
  33393 WAT       -33.1820  -70.1660   -1.5830 O         1 <0>         0.0000
  33394 WAT       -33.1820  -70.1660   -1.3330 O         1 <0>         0.0000
  33395 WAT       -33.1820  -70.1660   -1.0830 O         1 <0>         0.0000
  33396 WAT       -33.1820  -70.1660   -0.8330 O         1 <0>         0.0000
  33397 WAT       -33.1820  -70.1660   -0.5830 O         1 <0>         0.0000
  33398 WAT       -33.1820  -70.1660   -0.3330 O         1 <0>         0.0000
  33399 WAT       -33.1820  -70.1660   -0.0830 O         1 <0>         0.0000
  33400 WAT       -33.1820  -69.9160   -9.8330 O         1 <0>         0.0000
  33401 WAT       -33.1820  -69.9160   -9.5830 O         1 <0>         0.0000
  33402 WAT       -33.1820  -69.9160   -9.3330 O         1 <0>         0.0000
  33403 WAT       -33.1820  -69.9160   -9.0830 O         1 <0>         0.0000
  33404 WAT       -33.1820  -69.9160   -8.8330 O         1 <0>         0.0000
  33405 WAT       -33.1820  -69.9160   -8.5830 O         1 <0>         0.0000
  33406 WAT       -33.1820  -69.9160   -8.3330 O         1 <0>         0.0001
  33407 WAT       -33.1820  -69.9160   -8.0830 O         1 <0>         0.0004
  33408 WAT       -33.1820  -69.9160   -7.8330 O         1 <0>         0.0020
  33409 WAT       -33.1820  -69.9160   -7.5830 O         1 <0>         0.0062
  33410 WAT       -33.1820  -69.9160   -7.3330 O         1 <0>         0.0182
  33411 WAT       -33.1820  -69.9160   -7.0830 O         1 <0>         0.0491
  33412 WAT       -33.1820  -69.9160   -6.8330 O         1 <0>         0.1083
  33413 WAT       -33.1820  -69.9160   -6.5830 O         1 <0>         0.1758
  33414 WAT       -33.1820  -69.9160   -6.3330 O         1 <0>         0.1954
  33415 WAT       -33.1820  -69.9160   -6.0830 O         1 <0>         0.1430
  33416 WAT       -33.1820  -69.9160   -5.8330 O         1 <0>         0.0671
  33417 WAT       -33.1820  -69.9160   -5.5830 O         1 <0>         0.0188
  33418 WAT       -33.1820  -69.9160   -5.3330 O         1 <0>         0.0024
  33419 WAT       -33.1820  -69.9160   -5.0830 O         1 <0>         0.0001
  33420 WAT       -33.1820  -69.9160   -4.8330 O         1 <0>         0.0000
  33421 WAT       -33.1820  -69.9160   -4.5830 O         1 <0>         0.0000
  33422 WAT       -33.1820  -69.9160   -4.3330 O         1 <0>         0.0000
  33423 WAT       -33.1820  -69.9160   -4.0830 O         1 <0>         0.0000
  33424 WAT       -33.1820  -69.9160   -3.8330 O         1 <0>         0.0000
  33425 WAT       -33.1820  -69.9160   -3.5830 O         1 <0>         0.0000
  33426 WAT       -33.1820  -69.9160   -3.3330 O         1 <0>         0.0000
  33427 WAT       -33.1820  -69.9160   -3.0830 O         1 <0>         0.0000
  33428 WAT       -33.1820  -69.9160   -2.8330 O         1 <0>         0.0000
  33429 WAT       -33.1820  -69.9160   -2.5830 O         1 <0>         0.0000
  33430 WAT       -33.1820  -69.9160   -2.3330 O         1 <0>         0.0000
  33431 WAT       -33.1820  -69.9160   -2.0830 O         1 <0>         0.0000
  33432 WAT       -33.1820  -69.9160   -1.8330 O         1 <0>         0.0000
  33433 WAT       -33.1820  -69.9160   -1.5830 O         1 <0>         0.0000
  33434 WAT       -33.1820  -69.9160   -1.3330 O         1 <0>         0.0000
  33435 WAT       -33.1820  -69.9160   -1.0830 O         1 <0>         0.0000
  33436 WAT       -33.1820  -69.9160   -0.8330 O         1 <0>         0.0000
  33437 WAT       -33.1820  -69.9160   -0.5830 O         1 <0>         0.0000
  33438 WAT       -33.1820  -69.9160   -0.3330 O         1 <0>         0.0000
  33439 WAT       -33.1820  -69.9160   -0.0830 O         1 <0>         0.0000
  33440 WAT       -33.1820  -69.6660   -9.8330 O         1 <0>         0.0000
  33441 WAT       -33.1820  -69.6660   -9.5830 O         1 <0>         0.0000
  33442 WAT       -33.1820  -69.6660   -9.3330 O         1 <0>         0.0000
  33443 WAT       -33.1820  -69.6660   -9.0830 O         1 <0>         0.0000
  33444 WAT       -33.1820  -69.6660   -8.8330 O         1 <0>         0.0000
  33445 WAT       -33.1820  -69.6660   -8.5830 O         1 <0>         0.0000
  33446 WAT       -33.1820  -69.6660   -8.3330 O         1 <0>         0.0000
  33447 WAT       -33.1820  -69.6660   -8.0830 O         1 <0>         0.0002
  33448 WAT       -33.1820  -69.6660   -7.8330 O         1 <0>         0.0007
  33449 WAT       -33.1820  -69.6660   -7.5830 O         1 <0>         0.0024
  33450 WAT       -33.1820  -69.6660   -7.3330 O         1 <0>         0.0073
  33451 WAT       -33.1820  -69.6660   -7.0830 O         1 <0>         0.0212
  33452 WAT       -33.1820  -69.6660   -6.8330 O         1 <0>         0.0486
  33453 WAT       -33.1820  -69.6660   -6.5830 O         1 <0>         0.0795
  33454 WAT       -33.1820  -69.6660   -6.3330 O         1 <0>         0.0879
  33455 WAT       -33.1820  -69.6660   -6.0830 O         1 <0>         0.0635
  33456 WAT       -33.1820  -69.6660   -5.8330 O         1 <0>         0.0290
  33457 WAT       -33.1820  -69.6660   -5.5830 O         1 <0>         0.0076
  33458 WAT       -33.1820  -69.6660   -5.3330 O         1 <0>         0.0009
  33459 WAT       -33.1820  -69.6660   -5.0830 O         1 <0>         0.0000
  33460 WAT       -33.1820  -69.6660   -4.8330 O         1 <0>         0.0000
  33461 WAT       -33.1820  -69.6660   -4.5830 O         1 <0>         0.0000
  33462 WAT       -33.1820  -69.6660   -4.3330 O         1 <0>         0.0000
  33463 WAT       -33.1820  -69.6660   -4.0830 O         1 <0>         0.0000
  33464 WAT       -33.1820  -69.6660   -3.8330 O         1 <0>         0.0000
  33465 WAT       -33.1820  -69.6660   -3.5830 O         1 <0>         0.0000
  33466 WAT       -33.1820  -69.6660   -3.3330 O         1 <0>         0.0000
  33467 WAT       -33.1820  -69.6660   -3.0830 O         1 <0>         0.0000
  33468 WAT       -33.1820  -69.6660   -2.8330 O         1 <0>         0.0000
  33469 WAT       -33.1820  -69.6660   -2.5830 O         1 <0>         0.0000
  33470 WAT       -33.1820  -69.6660   -2.3330 O         1 <0>         0.0000
  33471 WAT       -33.1820  -69.6660   -2.0830 O         1 <0>         0.0000
  33472 WAT       -33.1820  -69.6660   -1.8330 O         1 <0>         0.0000
  33473 WAT       -33.1820  -69.6660   -1.5830 O         1 <0>         0.0000
  33474 WAT       -33.1820  -69.6660   -1.3330 O         1 <0>         0.0000
  33475 WAT       -33.1820  -69.6660   -1.0830 O         1 <0>         0.0000
  33476 WAT       -33.1820  -69.6660   -0.8330 O         1 <0>         0.0000
  33477 WAT       -33.1820  -69.6660   -0.5830 O         1 <0>         0.0000
  33478 WAT       -33.1820  -69.6660   -0.3330 O         1 <0>         0.0000
  33479 WAT       -33.1820  -69.6660   -0.0830 O         1 <0>         0.0000
  33480 WAT       -33.1820  -69.4160   -9.8330 O         1 <0>         0.0000
  33481 WAT       -33.1820  -69.4160   -9.5830 O         1 <0>         0.0000
  33482 WAT       -33.1820  -69.4160   -9.3330 O         1 <0>         0.0000
  33483 WAT       -33.1820  -69.4160   -9.0830 O         1 <0>         0.0000
  33484 WAT       -33.1820  -69.4160   -8.8330 O         1 <0>         0.0000
  33485 WAT       -33.1820  -69.4160   -8.5830 O         1 <0>         0.0000
  33486 WAT       -33.1820  -69.4160   -8.3330 O         1 <0>         0.0000
  33487 WAT       -33.1820  -69.4160   -8.0830 O         1 <0>         0.0000
  33488 WAT       -33.1820  -69.4160   -7.8330 O         1 <0>         0.0002
  33489 WAT       -33.1820  -69.4160   -7.5830 O         1 <0>         0.0005
  33490 WAT       -33.1820  -69.4160   -7.3330 O         1 <0>         0.0018
  33491 WAT       -33.1820  -69.4160   -7.0830 O         1 <0>         0.0058
  33492 WAT       -33.1820  -69.4160   -6.8330 O         1 <0>         0.0145
  33493 WAT       -33.1820  -69.4160   -6.5830 O         1 <0>         0.0244
  33494 WAT       -33.1820  -69.4160   -6.3330 O         1 <0>         0.0272
  33495 WAT       -33.1820  -69.4160   -6.0830 O         1 <0>         0.0194
  33496 WAT       -33.1820  -69.4160   -5.8330 O         1 <0>         0.0084
  33497 WAT       -33.1820  -69.4160   -5.5830 O         1 <0>         0.0020
  33498 WAT       -33.1820  -69.4160   -5.3330 O         1 <0>         0.0002
  33499 WAT       -33.1820  -69.4160   -5.0830 O         1 <0>         0.0000
  33500 WAT       -33.1820  -69.4160   -4.8330 O         1 <0>         0.0000
  33501 WAT       -33.1820  -69.4160   -4.5830 O         1 <0>         0.0000
  33502 WAT       -33.1820  -69.4160   -4.3330 O         1 <0>         0.0000
  33503 WAT       -33.1820  -69.4160   -4.0830 O         1 <0>         0.0000
  33504 WAT       -33.1820  -69.4160   -3.8330 O         1 <0>         0.0000
  33505 WAT       -33.1820  -69.4160   -3.5830 O         1 <0>         0.0000
  33506 WAT       -33.1820  -69.4160   -3.3330 O         1 <0>         0.0000
  33507 WAT       -33.1820  -69.4160   -3.0830 O         1 <0>         0.0000
  33508 WAT       -33.1820  -69.4160   -2.8330 O         1 <0>         0.0000
  33509 WAT       -33.1820  -69.4160   -2.5830 O         1 <0>         0.0000
  33510 WAT       -33.1820  -69.4160   -2.3330 O         1 <0>         0.0000
  33511 WAT       -33.1820  -69.4160   -2.0830 O         1 <0>         0.0000
  33512 WAT       -33.1820  -69.4160   -1.8330 O         1 <0>         0.0000
  33513 WAT       -33.1820  -69.4160   -1.5830 O         1 <0>         0.0000
  33514 WAT       -33.1820  -69.4160   -1.3330 O         1 <0>         0.0000
  33515 WAT       -33.1820  -69.4160   -1.0830 O         1 <0>         0.0000
  33516 WAT       -33.1820  -69.4160   -0.8330 O         1 <0>         0.0000
  33517 WAT       -33.1820  -69.4160   -0.5830 O         1 <0>         0.0000
  33518 WAT       -33.1820  -69.4160   -0.3330 O         1 <0>         0.0000
  33519 WAT       -33.1820  -69.4160   -0.0830 O         1 <0>         0.0000
  33520 WAT       -33.1820  -69.1660   -9.8330 O         1 <0>         0.0000
  33521 WAT       -33.1820  -69.1660   -9.5830 O         1 <0>         0.0000
  33522 WAT       -33.1820  -69.1660   -9.3330 O         1 <0>         0.0000
  33523 WAT       -33.1820  -69.1660   -9.0830 O         1 <0>         0.0000
  33524 WAT       -33.1820  -69.1660   -8.8330 O         1 <0>         0.0000
  33525 WAT       -33.1820  -69.1660   -8.5830 O         1 <0>         0.0000
  33526 WAT       -33.1820  -69.1660   -8.3330 O         1 <0>         0.0000
  33527 WAT       -33.1820  -69.1660   -8.0830 O         1 <0>         0.0000
  33528 WAT       -33.1820  -69.1660   -7.8330 O         1 <0>         0.0000
  33529 WAT       -33.1820  -69.1660   -7.5830 O         1 <0>         0.0001
  33530 WAT       -33.1820  -69.1660   -7.3330 O         1 <0>         0.0002
  33531 WAT       -33.1820  -69.1660   -7.0830 O         1 <0>         0.0009
  33532 WAT       -33.1820  -69.1660   -6.8330 O         1 <0>         0.0026
  33533 WAT       -33.1820  -69.1660   -6.5830 O         1 <0>         0.0048
  33534 WAT       -33.1820  -69.1660   -6.3330 O         1 <0>         0.0055
  33535 WAT       -33.1820  -69.1660   -6.0830 O         1 <0>         0.0038
  33536 WAT       -33.1820  -69.1660   -5.8330 O         1 <0>         0.0016
  33537 WAT       -33.1820  -69.1660   -5.5830 O         1 <0>         0.0003
  33538 WAT       -33.1820  -69.1660   -5.3330 O         1 <0>         0.0000
  33539 WAT       -33.1820  -69.1660   -5.0830 O         1 <0>         0.0000
  33540 WAT       -33.1820  -69.1660   -4.8330 O         1 <0>         0.0000
  33541 WAT       -33.1820  -69.1660   -4.5830 O         1 <0>         0.0000
  33542 WAT       -33.1820  -69.1660   -4.3330 O         1 <0>         0.0000
  33543 WAT       -33.1820  -69.1660   -4.0830 O         1 <0>         0.0000
  33544 WAT       -33.1820  -69.1660   -3.8330 O         1 <0>         0.0000
  33545 WAT       -33.1820  -69.1660   -3.5830 O         1 <0>         0.0000
  33546 WAT       -33.1820  -69.1660   -3.3330 O         1 <0>         0.0000
  33547 WAT       -33.1820  -69.1660   -3.0830 O         1 <0>         0.0000
  33548 WAT       -33.1820  -69.1660   -2.8330 O         1 <0>         0.0000
  33549 WAT       -33.1820  -69.1660   -2.5830 O         1 <0>         0.0000
  33550 WAT       -33.1820  -69.1660   -2.3330 O         1 <0>         0.0000
  33551 WAT       -33.1820  -69.1660   -2.0830 O         1 <0>         0.0000
  33552 WAT       -33.1820  -69.1660   -1.8330 O         1 <0>         0.0000
  33553 WAT       -33.1820  -69.1660   -1.5830 O         1 <0>         0.0000
  33554 WAT       -33.1820  -69.1660   -1.3330 O         1 <0>         0.0000
  33555 WAT       -33.1820  -69.1660   -1.0830 O         1 <0>         0.0000
  33556 WAT       -33.1820  -69.1660   -0.8330 O         1 <0>         0.0000
  33557 WAT       -33.1820  -69.1660   -0.5830 O         1 <0>         0.0000
  33558 WAT       -33.1820  -69.1660   -0.3330 O         1 <0>         0.0000
  33559 WAT       -33.1820  -69.1660   -0.0830 O         1 <0>         0.0000
  33560 WAT       -33.1820  -68.9160   -9.8330 O         1 <0>         0.0000
  33561 WAT       -33.1820  -68.9160   -9.5830 O         1 <0>         0.0000
  33562 WAT       -33.1820  -68.9160   -9.3330 O         1 <0>         0.0000
  33563 WAT       -33.1820  -68.9160   -9.0830 O         1 <0>         0.0000
  33564 WAT       -33.1820  -68.9160   -8.8330 O         1 <0>         0.0000
  33565 WAT       -33.1820  -68.9160   -8.5830 O         1 <0>         0.0000
  33566 WAT       -33.1820  -68.9160   -8.3330 O         1 <0>         0.0000
  33567 WAT       -33.1820  -68.9160   -8.0830 O         1 <0>         0.0000
  33568 WAT       -33.1820  -68.9160   -7.8330 O         1 <0>         0.0000
  33569 WAT       -33.1820  -68.9160   -7.5830 O         1 <0>         0.0000
  33570 WAT       -33.1820  -68.9160   -7.3330 O         1 <0>         0.0000
  33571 WAT       -33.1820  -68.9160   -7.0830 O         1 <0>         0.0001
  33572 WAT       -33.1820  -68.9160   -6.8330 O         1 <0>         0.0003
  33573 WAT       -33.1820  -68.9160   -6.5830 O         1 <0>         0.0006
  33574 WAT       -33.1820  -68.9160   -6.3330 O         1 <0>         0.0007
  33575 WAT       -33.1820  -68.9160   -6.0830 O         1 <0>         0.0005
  33576 WAT       -33.1820  -68.9160   -5.8330 O         1 <0>         0.0002
  33577 WAT       -33.1820  -68.9160   -5.5830 O         1 <0>         0.0000
  33578 WAT       -33.1820  -68.9160   -5.3330 O         1 <0>         0.0000
  33579 WAT       -33.1820  -68.9160   -5.0830 O         1 <0>         0.0000
  33580 WAT       -33.1820  -68.9160   -4.8330 O         1 <0>         0.0000
  33581 WAT       -33.1820  -68.9160   -4.5830 O         1 <0>         0.0000
  33582 WAT       -33.1820  -68.9160   -4.3330 O         1 <0>         0.0000
  33583 WAT       -33.1820  -68.9160   -4.0830 O         1 <0>         0.0000
  33584 WAT       -33.1820  -68.9160   -3.8330 O         1 <0>         0.0000
  33585 WAT       -33.1820  -68.9160   -3.5830 O         1 <0>         0.0000
  33586 WAT       -33.1820  -68.9160   -3.3330 O         1 <0>         0.0000
  33587 WAT       -33.1820  -68.9160   -3.0830 O         1 <0>         0.0000
  33588 WAT       -33.1820  -68.9160   -2.8330 O         1 <0>         0.0000
  33589 WAT       -33.1820  -68.9160   -2.5830 O         1 <0>         0.0000
  33590 WAT       -33.1820  -68.9160   -2.3330 O         1 <0>         0.0000
  33591 WAT       -33.1820  -68.9160   -2.0830 O         1 <0>         0.0000
  33592 WAT       -33.1820  -68.9160   -1.8330 O         1 <0>         0.0000
  33593 WAT       -33.1820  -68.9160   -1.5830 O         1 <0>         0.0000
  33594 WAT       -33.1820  -68.9160   -1.3330 O         1 <0>         0.0000
  33595 WAT       -33.1820  -68.9160   -1.0830 O         1 <0>         0.0000
  33596 WAT       -33.1820  -68.9160   -0.8330 O         1 <0>         0.0000
  33597 WAT       -33.1820  -68.9160   -0.5830 O         1 <0>         0.0000
  33598 WAT       -33.1820  -68.9160   -0.3330 O         1 <0>         0.0000
  33599 WAT       -33.1820  -68.9160   -0.0830 O         1 <0>         0.0000
  33600 WAT       -32.9320  -77.4160   -9.8330 O         1 <0>         0.0000
  33601 WAT       -32.9320  -77.4160   -9.5830 O         1 <0>         0.0000
  33602 WAT       -32.9320  -77.4160   -9.3330 O         1 <0>         0.0000
  33603 WAT       -32.9320  -77.4160   -9.0830 O         1 <0>         0.0000
  33604 WAT       -32.9320  -77.4160   -8.8330 O         1 <0>         0.0000
  33605 WAT       -32.9320  -77.4160   -8.5830 O         1 <0>         0.0000
  33606 WAT       -32.9320  -77.4160   -8.3330 O         1 <0>         0.0000
  33607 WAT       -32.9320  -77.4160   -8.0830 O         1 <0>         0.0000
  33608 WAT       -32.9320  -77.4160   -7.8330 O         1 <0>         0.0000
  33609 WAT       -32.9320  -77.4160   -7.5830 O         1 <0>         0.0000
  33610 WAT       -32.9320  -77.4160   -7.3330 O         1 <0>         0.0000
  33611 WAT       -32.9320  -77.4160   -7.0830 O         1 <0>         0.0000
  33612 WAT       -32.9320  -77.4160   -6.8330 O         1 <0>         0.0000
  33613 WAT       -32.9320  -77.4160   -6.5830 O         1 <0>         0.0000
  33614 WAT       -32.9320  -77.4160   -6.3330 O         1 <0>         0.0000
  33615 WAT       -32.9320  -77.4160   -6.0830 O         1 <0>         0.0000
  33616 WAT       -32.9320  -77.4160   -5.8330 O         1 <0>         0.0000
  33617 WAT       -32.9320  -77.4160   -5.5830 O         1 <0>         0.0000
  33618 WAT       -32.9320  -77.4160   -5.3330 O         1 <0>         0.0000
  33619 WAT       -32.9320  -77.4160   -5.0830 O         1 <0>         0.0000
  33620 WAT       -32.9320  -77.4160   -4.8330 O         1 <0>         0.0000
  33621 WAT       -32.9320  -77.4160   -4.5830 O         1 <0>         0.0000
  33622 WAT       -32.9320  -77.4160   -4.3330 O         1 <0>         0.0000
  33623 WAT       -32.9320  -77.4160   -4.0830 O         1 <0>         0.0000
  33624 WAT       -32.9320  -77.4160   -3.8330 O         1 <0>         0.0000
  33625 WAT       -32.9320  -77.4160   -3.5830 O         1 <0>         0.0000
  33626 WAT       -32.9320  -77.4160   -3.3330 O         1 <0>         0.0000
  33627 WAT       -32.9320  -77.4160   -3.0830 O         1 <0>         0.0000
  33628 WAT       -32.9320  -77.4160   -2.8330 O         1 <0>         0.0000
  33629 WAT       -32.9320  -77.4160   -2.5830 O         1 <0>         0.0000
  33630 WAT       -32.9320  -77.4160   -2.3330 O         1 <0>         0.0000
  33631 WAT       -32.9320  -77.4160   -2.0830 O         1 <0>         0.0000
  33632 WAT       -32.9320  -77.4160   -1.8330 O         1 <0>         0.0000
  33633 WAT       -32.9320  -77.4160   -1.5830 O         1 <0>         0.0000
  33634 WAT       -32.9320  -77.4160   -1.3330 O         1 <0>         0.0000
  33635 WAT       -32.9320  -77.4160   -1.0830 O         1 <0>         0.0000
  33636 WAT       -32.9320  -77.4160   -0.8330 O         1 <0>         0.0000
  33637 WAT       -32.9320  -77.4160   -0.5830 O         1 <0>         0.0000
  33638 WAT       -32.9320  -77.4160   -0.3330 O         1 <0>         0.0000
  33639 WAT       -32.9320  -77.4160   -0.0830 O         1 <0>         0.0000
  33640 WAT       -32.9320  -77.1660   -9.8330 O         1 <0>         0.0000
  33641 WAT       -32.9320  -77.1660   -9.5830 O         1 <0>         0.0000
  33642 WAT       -32.9320  -77.1660   -9.3330 O         1 <0>         0.0000
  33643 WAT       -32.9320  -77.1660   -9.0830 O         1 <0>         0.0000
  33644 WAT       -32.9320  -77.1660   -8.8330 O         1 <0>         0.0000
  33645 WAT       -32.9320  -77.1660   -8.5830 O         1 <0>         0.0000
  33646 WAT       -32.9320  -77.1660   -8.3330 O         1 <0>         0.0000
  33647 WAT       -32.9320  -77.1660   -8.0830 O         1 <0>         0.0000
  33648 WAT       -32.9320  -77.1660   -7.8330 O         1 <0>         0.0000
  33649 WAT       -32.9320  -77.1660   -7.5830 O         1 <0>         0.0000
  33650 WAT       -32.9320  -77.1660   -7.3330 O         1 <0>         0.0000
  33651 WAT       -32.9320  -77.1660   -7.0830 O         1 <0>         0.0000
  33652 WAT       -32.9320  -77.1660   -6.8330 O         1 <0>         0.0000
  33653 WAT       -32.9320  -77.1660   -6.5830 O         1 <0>         0.0000
  33654 WAT       -32.9320  -77.1660   -6.3330 O         1 <0>         0.0000
  33655 WAT       -32.9320  -77.1660   -6.0830 O         1 <0>         0.0000
  33656 WAT       -32.9320  -77.1660   -5.8330 O         1 <0>         0.0000
  33657 WAT       -32.9320  -77.1660   -5.5830 O         1 <0>         0.0000
  33658 WAT       -32.9320  -77.1660   -5.3330 O         1 <0>         0.0000
  33659 WAT       -32.9320  -77.1660   -5.0830 O         1 <0>         0.0000
  33660 WAT       -32.9320  -77.1660   -4.8330 O         1 <0>         0.0000
  33661 WAT       -32.9320  -77.1660   -4.5830 O         1 <0>         0.0000
  33662 WAT       -32.9320  -77.1660   -4.3330 O         1 <0>         0.0000
  33663 WAT       -32.9320  -77.1660   -4.0830 O         1 <0>         0.0000
  33664 WAT       -32.9320  -77.1660   -3.8330 O         1 <0>         0.0000
  33665 WAT       -32.9320  -77.1660   -3.5830 O         1 <0>         0.0000
  33666 WAT       -32.9320  -77.1660   -3.3330 O         1 <0>         0.0000
  33667 WAT       -32.9320  -77.1660   -3.0830 O         1 <0>         0.0000
  33668 WAT       -32.9320  -77.1660   -2.8330 O         1 <0>         0.0000
  33669 WAT       -32.9320  -77.1660   -2.5830 O         1 <0>         0.0000
  33670 WAT       -32.9320  -77.1660   -2.3330 O         1 <0>         0.0000
  33671 WAT       -32.9320  -77.1660   -2.0830 O         1 <0>         0.0000
  33672 WAT       -32.9320  -77.1660   -1.8330 O         1 <0>         0.0000
  33673 WAT       -32.9320  -77.1660   -1.5830 O         1 <0>         0.0000
  33674 WAT       -32.9320  -77.1660   -1.3330 O         1 <0>         0.0000
  33675 WAT       -32.9320  -77.1660   -1.0830 O         1 <0>         0.0000
  33676 WAT       -32.9320  -77.1660   -0.8330 O         1 <0>         0.0000
  33677 WAT       -32.9320  -77.1660   -0.5830 O         1 <0>         0.0000
  33678 WAT       -32.9320  -77.1660   -0.3330 O         1 <0>         0.0000
  33679 WAT       -32.9320  -77.1660   -0.0830 O         1 <0>         0.0000
  33680 WAT       -32.9320  -76.9160   -9.8330 O         1 <0>         0.0000
  33681 WAT       -32.9320  -76.9160   -9.5830 O         1 <0>         0.0000
  33682 WAT       -32.9320  -76.9160   -9.3330 O         1 <0>         0.0000
  33683 WAT       -32.9320  -76.9160   -9.0830 O         1 <0>         0.0000
  33684 WAT       -32.9320  -76.9160   -8.8330 O         1 <0>         0.0000
  33685 WAT       -32.9320  -76.9160   -8.5830 O         1 <0>         0.0000
  33686 WAT       -32.9320  -76.9160   -8.3330 O         1 <0>         0.0000
  33687 WAT       -32.9320  -76.9160   -8.0830 O         1 <0>         0.0000
  33688 WAT       -32.9320  -76.9160   -7.8330 O         1 <0>         0.0000
  33689 WAT       -32.9320  -76.9160   -7.5830 O         1 <0>         0.0000
  33690 WAT       -32.9320  -76.9160   -7.3330 O         1 <0>         0.0000
  33691 WAT       -32.9320  -76.9160   -7.0830 O         1 <0>         0.0000
  33692 WAT       -32.9320  -76.9160   -6.8330 O         1 <0>         0.0000
  33693 WAT       -32.9320  -76.9160   -6.5830 O         1 <0>         0.0000
  33694 WAT       -32.9320  -76.9160   -6.3330 O         1 <0>         0.0000
  33695 WAT       -32.9320  -76.9160   -6.0830 O         1 <0>         0.0000
  33696 WAT       -32.9320  -76.9160   -5.8330 O         1 <0>         0.0000
  33697 WAT       -32.9320  -76.9160   -5.5830 O         1 <0>         0.0000
  33698 WAT       -32.9320  -76.9160   -5.3330 O         1 <0>         0.0000
  33699 WAT       -32.9320  -76.9160   -5.0830 O         1 <0>         0.0000
  33700 WAT       -32.9320  -76.9160   -4.8330 O         1 <0>         0.0000
  33701 WAT       -32.9320  -76.9160   -4.5830 O         1 <0>         0.0000
  33702 WAT       -32.9320  -76.9160   -4.3330 O         1 <0>         0.0000
  33703 WAT       -32.9320  -76.9160   -4.0830 O         1 <0>         0.0000
  33704 WAT       -32.9320  -76.9160   -3.8330 O         1 <0>         0.0000
  33705 WAT       -32.9320  -76.9160   -3.5830 O         1 <0>         0.0000
  33706 WAT       -32.9320  -76.9160   -3.3330 O         1 <0>         0.0000
  33707 WAT       -32.9320  -76.9160   -3.0830 O         1 <0>         0.0000
  33708 WAT       -32.9320  -76.9160   -2.8330 O         1 <0>         0.0000
  33709 WAT       -32.9320  -76.9160   -2.5830 O         1 <0>         0.0000
  33710 WAT       -32.9320  -76.9160   -2.3330 O         1 <0>         0.0000
  33711 WAT       -32.9320  -76.9160   -2.0830 O         1 <0>         0.0000
  33712 WAT       -32.9320  -76.9160   -1.8330 O         1 <0>         0.0000
  33713 WAT       -32.9320  -76.9160   -1.5830 O         1 <0>         0.0000
  33714 WAT       -32.9320  -76.9160   -1.3330 O         1 <0>         0.0000
  33715 WAT       -32.9320  -76.9160   -1.0830 O         1 <0>         0.0000
  33716 WAT       -32.9320  -76.9160   -0.8330 O         1 <0>         0.0000
  33717 WAT       -32.9320  -76.9160   -0.5830 O         1 <0>         0.0000
  33718 WAT       -32.9320  -76.9160   -0.3330 O         1 <0>         0.0000
  33719 WAT       -32.9320  -76.9160   -0.0830 O         1 <0>         0.0000
  33720 WAT       -32.9320  -76.6660   -9.8330 O         1 <0>         0.0000
  33721 WAT       -32.9320  -76.6660   -9.5830 O         1 <0>         0.0000
  33722 WAT       -32.9320  -76.6660   -9.3330 O         1 <0>         0.0000
  33723 WAT       -32.9320  -76.6660   -9.0830 O         1 <0>         0.0000
  33724 WAT       -32.9320  -76.6660   -8.8330 O         1 <0>         0.0000
  33725 WAT       -32.9320  -76.6660   -8.5830 O         1 <0>         0.0000
  33726 WAT       -32.9320  -76.6660   -8.3330 O         1 <0>         0.0000
  33727 WAT       -32.9320  -76.6660   -8.0830 O         1 <0>         0.0000
  33728 WAT       -32.9320  -76.6660   -7.8330 O         1 <0>         0.0000
  33729 WAT       -32.9320  -76.6660   -7.5830 O         1 <0>         0.0000
  33730 WAT       -32.9320  -76.6660   -7.3330 O         1 <0>         0.0000
  33731 WAT       -32.9320  -76.6660   -7.0830 O         1 <0>         0.0000
  33732 WAT       -32.9320  -76.6660   -6.8330 O         1 <0>         0.0000
  33733 WAT       -32.9320  -76.6660   -6.5830 O         1 <0>         0.0000
  33734 WAT       -32.9320  -76.6660   -6.3330 O         1 <0>         0.0000
  33735 WAT       -32.9320  -76.6660   -6.0830 O         1 <0>         0.0000
  33736 WAT       -32.9320  -76.6660   -5.8330 O         1 <0>         0.0000
  33737 WAT       -32.9320  -76.6660   -5.5830 O         1 <0>         0.0000
  33738 WAT       -32.9320  -76.6660   -5.3330 O         1 <0>         0.0000
  33739 WAT       -32.9320  -76.6660   -5.0830 O         1 <0>         0.0000
  33740 WAT       -32.9320  -76.6660   -4.8330 O         1 <0>         0.0000
  33741 WAT       -32.9320  -76.6660   -4.5830 O         1 <0>         0.0000
  33742 WAT       -32.9320  -76.6660   -4.3330 O         1 <0>         0.0000
  33743 WAT       -32.9320  -76.6660   -4.0830 O         1 <0>         0.0000
  33744 WAT       -32.9320  -76.6660   -3.8330 O         1 <0>         0.0000
  33745 WAT       -32.9320  -76.6660   -3.5830 O         1 <0>         0.0000
  33746 WAT       -32.9320  -76.6660   -3.3330 O         1 <0>         0.0000
  33747 WAT       -32.9320  -76.6660   -3.0830 O         1 <0>         0.0000
  33748 WAT       -32.9320  -76.6660   -2.8330 O         1 <0>         0.0000
  33749 WAT       -32.9320  -76.6660   -2.5830 O         1 <0>         0.0000
  33750 WAT       -32.9320  -76.6660   -2.3330 O         1 <0>         0.0000
  33751 WAT       -32.9320  -76.6660   -2.0830 O         1 <0>         0.0000
  33752 WAT       -32.9320  -76.6660   -1.8330 O         1 <0>         0.0000
  33753 WAT       -32.9320  -76.6660   -1.5830 O         1 <0>         0.0000
  33754 WAT       -32.9320  -76.6660   -1.3330 O         1 <0>         0.0000
  33755 WAT       -32.9320  -76.6660   -1.0830 O         1 <0>         0.0000
  33756 WAT       -32.9320  -76.6660   -0.8330 O         1 <0>         0.0000
  33757 WAT       -32.9320  -76.6660   -0.5830 O         1 <0>         0.0000
  33758 WAT       -32.9320  -76.6660   -0.3330 O         1 <0>         0.0000
  33759 WAT       -32.9320  -76.6660   -0.0830 O         1 <0>         0.0000
  33760 WAT       -32.9320  -76.4160   -9.8330 O         1 <0>         0.0000
  33761 WAT       -32.9320  -76.4160   -9.5830 O         1 <0>         0.0000
  33762 WAT       -32.9320  -76.4160   -9.3330 O         1 <0>         0.0000
  33763 WAT       -32.9320  -76.4160   -9.0830 O         1 <0>         0.0000
  33764 WAT       -32.9320  -76.4160   -8.8330 O         1 <0>         0.0000
  33765 WAT       -32.9320  -76.4160   -8.5830 O         1 <0>         0.0000
  33766 WAT       -32.9320  -76.4160   -8.3330 O         1 <0>         0.0000
  33767 WAT       -32.9320  -76.4160   -8.0830 O         1 <0>         0.0000
  33768 WAT       -32.9320  -76.4160   -7.8330 O         1 <0>         0.0000
  33769 WAT       -32.9320  -76.4160   -7.5830 O         1 <0>         0.0000
  33770 WAT       -32.9320  -76.4160   -7.3330 O         1 <0>         0.0000
  33771 WAT       -32.9320  -76.4160   -7.0830 O         1 <0>         0.0000
  33772 WAT       -32.9320  -76.4160   -6.8330 O         1 <0>         0.0000
  33773 WAT       -32.9320  -76.4160   -6.5830 O         1 <0>         0.0000
  33774 WAT       -32.9320  -76.4160   -6.3330 O         1 <0>         0.0000
  33775 WAT       -32.9320  -76.4160   -6.0830 O         1 <0>         0.0000
  33776 WAT       -32.9320  -76.4160   -5.8330 O         1 <0>         0.0000
  33777 WAT       -32.9320  -76.4160   -5.5830 O         1 <0>         0.0000
  33778 WAT       -32.9320  -76.4160   -5.3330 O         1 <0>         0.0000
  33779 WAT       -32.9320  -76.4160   -5.0830 O         1 <0>         0.0000
  33780 WAT       -32.9320  -76.4160   -4.8330 O         1 <0>         0.0000
  33781 WAT       -32.9320  -76.4160   -4.5830 O         1 <0>         0.0000
  33782 WAT       -32.9320  -76.4160   -4.3330 O         1 <0>         0.0000
  33783 WAT       -32.9320  -76.4160   -4.0830 O         1 <0>         0.0000
  33784 WAT       -32.9320  -76.4160   -3.8330 O         1 <0>         0.0000
  33785 WAT       -32.9320  -76.4160   -3.5830 O         1 <0>         0.0000
  33786 WAT       -32.9320  -76.4160   -3.3330 O         1 <0>         0.0000
  33787 WAT       -32.9320  -76.4160   -3.0830 O         1 <0>         0.0000
  33788 WAT       -32.9320  -76.4160   -2.8330 O         1 <0>         0.0000
  33789 WAT       -32.9320  -76.4160   -2.5830 O         1 <0>         0.0000
  33790 WAT       -32.9320  -76.4160   -2.3330 O         1 <0>         0.0000
  33791 WAT       -32.9320  -76.4160   -2.0830 O         1 <0>         0.0000
  33792 WAT       -32.9320  -76.4160   -1.8330 O         1 <0>         0.0000
  33793 WAT       -32.9320  -76.4160   -1.5830 O         1 <0>         0.0000
  33794 WAT       -32.9320  -76.4160   -1.3330 O         1 <0>         0.0000
  33795 WAT       -32.9320  -76.4160   -1.0830 O         1 <0>         0.0000
  33796 WAT       -32.9320  -76.4160   -0.8330 O         1 <0>         0.0000
  33797 WAT       -32.9320  -76.4160   -0.5830 O         1 <0>         0.0000
  33798 WAT       -32.9320  -76.4160   -0.3330 O         1 <0>         0.0000
  33799 WAT       -32.9320  -76.4160   -0.0830 O         1 <0>         0.0000
  33800 WAT       -32.9320  -76.1660   -9.8330 O         1 <0>         0.0000
  33801 WAT       -32.9320  -76.1660   -9.5830 O         1 <0>         0.0000
  33802 WAT       -32.9320  -76.1660   -9.3330 O         1 <0>         0.0000
  33803 WAT       -32.9320  -76.1660   -9.0830 O         1 <0>         0.0000
  33804 WAT       -32.9320  -76.1660   -8.8330 O         1 <0>         0.0000
  33805 WAT       -32.9320  -76.1660   -8.5830 O         1 <0>         0.0000
  33806 WAT       -32.9320  -76.1660   -8.3330 O         1 <0>         0.0000
  33807 WAT       -32.9320  -76.1660   -8.0830 O         1 <0>         0.0000
  33808 WAT       -32.9320  -76.1660   -7.8330 O         1 <0>         0.0000
  33809 WAT       -32.9320  -76.1660   -7.5830 O         1 <0>         0.0000
  33810 WAT       -32.9320  -76.1660   -7.3330 O         1 <0>         0.0000
  33811 WAT       -32.9320  -76.1660   -7.0830 O         1 <0>         0.0000
  33812 WAT       -32.9320  -76.1660   -6.8330 O         1 <0>         0.0000
  33813 WAT       -32.9320  -76.1660   -6.5830 O         1 <0>         0.0000
  33814 WAT       -32.9320  -76.1660   -6.3330 O         1 <0>         0.0000
  33815 WAT       -32.9320  -76.1660   -6.0830 O         1 <0>         0.0000
  33816 WAT       -32.9320  -76.1660   -5.8330 O         1 <0>         0.0001
  33817 WAT       -32.9320  -76.1660   -5.5830 O         1 <0>         0.0001
  33818 WAT       -32.9320  -76.1660   -5.3330 O         1 <0>         0.0001
  33819 WAT       -32.9320  -76.1660   -5.0830 O         1 <0>         0.0000
  33820 WAT       -32.9320  -76.1660   -4.8330 O         1 <0>         0.0000
  33821 WAT       -32.9320  -76.1660   -4.5830 O         1 <0>         0.0000
  33822 WAT       -32.9320  -76.1660   -4.3330 O         1 <0>         0.0000
  33823 WAT       -32.9320  -76.1660   -4.0830 O         1 <0>         0.0000
  33824 WAT       -32.9320  -76.1660   -3.8330 O         1 <0>         0.0000
  33825 WAT       -32.9320  -76.1660   -3.5830 O         1 <0>         0.0000
  33826 WAT       -32.9320  -76.1660   -3.3330 O         1 <0>         0.0000
  33827 WAT       -32.9320  -76.1660   -3.0830 O         1 <0>         0.0000
  33828 WAT       -32.9320  -76.1660   -2.8330 O         1 <0>         0.0000
  33829 WAT       -32.9320  -76.1660   -2.5830 O         1 <0>         0.0000
  33830 WAT       -32.9320  -76.1660   -2.3330 O         1 <0>         0.0000
  33831 WAT       -32.9320  -76.1660   -2.0830 O         1 <0>         0.0000
  33832 WAT       -32.9320  -76.1660   -1.8330 O         1 <0>         0.0000
  33833 WAT       -32.9320  -76.1660   -1.5830 O         1 <0>         0.0000
  33834 WAT       -32.9320  -76.1660   -1.3330 O         1 <0>         0.0000
  33835 WAT       -32.9320  -76.1660   -1.0830 O         1 <0>         0.0000
  33836 WAT       -32.9320  -76.1660   -0.8330 O         1 <0>         0.0000
  33837 WAT       -32.9320  -76.1660   -0.5830 O         1 <0>         0.0000
  33838 WAT       -32.9320  -76.1660   -0.3330 O         1 <0>         0.0000
  33839 WAT       -32.9320  -76.1660   -0.0830 O         1 <0>         0.0000
  33840 WAT       -32.9320  -75.9160   -9.8330 O         1 <0>         0.0000
  33841 WAT       -32.9320  -75.9160   -9.5830 O         1 <0>         0.0000
  33842 WAT       -32.9320  -75.9160   -9.3330 O         1 <0>         0.0000
  33843 WAT       -32.9320  -75.9160   -9.0830 O         1 <0>         0.0000
  33844 WAT       -32.9320  -75.9160   -8.8330 O         1 <0>         0.0000
  33845 WAT       -32.9320  -75.9160   -8.5830 O         1 <0>         0.0000
  33846 WAT       -32.9320  -75.9160   -8.3330 O         1 <0>         0.0000
  33847 WAT       -32.9320  -75.9160   -8.0830 O         1 <0>         0.0000
  33848 WAT       -32.9320  -75.9160   -7.8330 O         1 <0>         0.0000
  33849 WAT       -32.9320  -75.9160   -7.5830 O         1 <0>         0.0000
  33850 WAT       -32.9320  -75.9160   -7.3330 O         1 <0>         0.0000
  33851 WAT       -32.9320  -75.9160   -7.0830 O         1 <0>         0.0000
  33852 WAT       -32.9320  -75.9160   -6.8330 O         1 <0>         0.0000
  33853 WAT       -32.9320  -75.9160   -6.5830 O         1 <0>         0.0000
  33854 WAT       -32.9320  -75.9160   -6.3330 O         1 <0>         0.0001
  33855 WAT       -32.9320  -75.9160   -6.0830 O         1 <0>         0.0002
  33856 WAT       -32.9320  -75.9160   -5.8330 O         1 <0>         0.0004
  33857 WAT       -32.9320  -75.9160   -5.5830 O         1 <0>         0.0005
  33858 WAT       -32.9320  -75.9160   -5.3330 O         1 <0>         0.0005
  33859 WAT       -32.9320  -75.9160   -5.0830 O         1 <0>         0.0003
  33860 WAT       -32.9320  -75.9160   -4.8330 O         1 <0>         0.0001
  33861 WAT       -32.9320  -75.9160   -4.5830 O         1 <0>         0.0000
  33862 WAT       -32.9320  -75.9160   -4.3330 O         1 <0>         0.0000
  33863 WAT       -32.9320  -75.9160   -4.0830 O         1 <0>         0.0000
  33864 WAT       -32.9320  -75.9160   -3.8330 O         1 <0>         0.0000
  33865 WAT       -32.9320  -75.9160   -3.5830 O         1 <0>         0.0000
  33866 WAT       -32.9320  -75.9160   -3.3330 O         1 <0>         0.0000
  33867 WAT       -32.9320  -75.9160   -3.0830 O         1 <0>         0.0000
  33868 WAT       -32.9320  -75.9160   -2.8330 O         1 <0>         0.0000
  33869 WAT       -32.9320  -75.9160   -2.5830 O         1 <0>         0.0000
  33870 WAT       -32.9320  -75.9160   -2.3330 O         1 <0>         0.0000
  33871 WAT       -32.9320  -75.9160   -2.0830 O         1 <0>         0.0000
  33872 WAT       -32.9320  -75.9160   -1.8330 O         1 <0>         0.0000
  33873 WAT       -32.9320  -75.9160   -1.5830 O         1 <0>         0.0000
  33874 WAT       -32.9320  -75.9160   -1.3330 O         1 <0>         0.0000
  33875 WAT       -32.9320  -75.9160   -1.0830 O         1 <0>         0.0000
  33876 WAT       -32.9320  -75.9160   -0.8330 O         1 <0>         0.0000
  33877 WAT       -32.9320  -75.9160   -0.5830 O         1 <0>         0.0000
  33878 WAT       -32.9320  -75.9160   -0.3330 O         1 <0>         0.0000
  33879 WAT       -32.9320  -75.9160   -0.0830 O         1 <0>         0.0000
  33880 WAT       -32.9320  -75.6660   -9.8330 O         1 <0>         0.0000
  33881 WAT       -32.9320  -75.6660   -9.5830 O         1 <0>         0.0000
  33882 WAT       -32.9320  -75.6660   -9.3330 O         1 <0>         0.0000
  33883 WAT       -32.9320  -75.6660   -9.0830 O         1 <0>         0.0000
  33884 WAT       -32.9320  -75.6660   -8.8330 O         1 <0>         0.0000
  33885 WAT       -32.9320  -75.6660   -8.5830 O         1 <0>         0.0000
  33886 WAT       -32.9320  -75.6660   -8.3330 O         1 <0>         0.0000
  33887 WAT       -32.9320  -75.6660   -8.0830 O         1 <0>         0.0000
  33888 WAT       -32.9320  -75.6660   -7.8330 O         1 <0>         0.0000
  33889 WAT       -32.9320  -75.6660   -7.5830 O         1 <0>         0.0000
  33890 WAT       -32.9320  -75.6660   -7.3330 O         1 <0>         0.0000
  33891 WAT       -32.9320  -75.6660   -7.0830 O         1 <0>         0.0000
  33892 WAT       -32.9320  -75.6660   -6.8330 O         1 <0>         0.0000
  33893 WAT       -32.9320  -75.6660   -6.5830 O         1 <0>         0.0000
  33894 WAT       -32.9320  -75.6660   -6.3330 O         1 <0>         0.0002
  33895 WAT       -32.9320  -75.6660   -6.0830 O         1 <0>         0.0008
  33896 WAT       -32.9320  -75.6660   -5.8330 O         1 <0>         0.0018
  33897 WAT       -32.9320  -75.6660   -5.5830 O         1 <0>         0.0025
  33898 WAT       -32.9320  -75.6660   -5.3330 O         1 <0>         0.0024
  33899 WAT       -32.9320  -75.6660   -5.0830 O         1 <0>         0.0015
  33900 WAT       -32.9320  -75.6660   -4.8330 O         1 <0>         0.0007
  33901 WAT       -32.9320  -75.6660   -4.5830 O         1 <0>         0.0002
  33902 WAT       -32.9320  -75.6660   -4.3330 O         1 <0>         0.0001
  33903 WAT       -32.9320  -75.6660   -4.0830 O         1 <0>         0.0001
  33904 WAT       -32.9320  -75.6660   -3.8330 O         1 <0>         0.0001
  33905 WAT       -32.9320  -75.6660   -3.5830 O         1 <0>         0.0000
  33906 WAT       -32.9320  -75.6660   -3.3330 O         1 <0>         0.0000
  33907 WAT       -32.9320  -75.6660   -3.0830 O         1 <0>         0.0000
  33908 WAT       -32.9320  -75.6660   -2.8330 O         1 <0>         0.0000
  33909 WAT       -32.9320  -75.6660   -2.5830 O         1 <0>         0.0000
  33910 WAT       -32.9320  -75.6660   -2.3330 O         1 <0>         0.0000
  33911 WAT       -32.9320  -75.6660   -2.0830 O         1 <0>         0.0000
  33912 WAT       -32.9320  -75.6660   -1.8330 O         1 <0>         0.0000
  33913 WAT       -32.9320  -75.6660   -1.5830 O         1 <0>         0.0000
  33914 WAT       -32.9320  -75.6660   -1.3330 O         1 <0>         0.0000
  33915 WAT       -32.9320  -75.6660   -1.0830 O         1 <0>         0.0000
  33916 WAT       -32.9320  -75.6660   -0.8330 O         1 <0>         0.0000
  33917 WAT       -32.9320  -75.6660   -0.5830 O         1 <0>         0.0000
  33918 WAT       -32.9320  -75.6660   -0.3330 O         1 <0>         0.0000
  33919 WAT       -32.9320  -75.6660   -0.0830 O         1 <0>         0.0000
  33920 WAT       -32.9320  -75.4160   -9.8330 O         1 <0>         0.0000
  33921 WAT       -32.9320  -75.4160   -9.5830 O         1 <0>         0.0000
  33922 WAT       -32.9320  -75.4160   -9.3330 O         1 <0>         0.0000
  33923 WAT       -32.9320  -75.4160   -9.0830 O         1 <0>         0.0000
  33924 WAT       -32.9320  -75.4160   -8.8330 O         1 <0>         0.0000
  33925 WAT       -32.9320  -75.4160   -8.5830 O         1 <0>         0.0000
  33926 WAT       -32.9320  -75.4160   -8.3330 O         1 <0>         0.0000
  33927 WAT       -32.9320  -75.4160   -8.0830 O         1 <0>         0.0000
  33928 WAT       -32.9320  -75.4160   -7.8330 O         1 <0>         0.0000
  33929 WAT       -32.9320  -75.4160   -7.5830 O         1 <0>         0.0000
  33930 WAT       -32.9320  -75.4160   -7.3330 O         1 <0>         0.0000
  33931 WAT       -32.9320  -75.4160   -7.0830 O         1 <0>         0.0000
  33932 WAT       -32.9320  -75.4160   -6.8330 O         1 <0>         0.0000
  33933 WAT       -32.9320  -75.4160   -6.5830 O         1 <0>         0.0001
  33934 WAT       -32.9320  -75.4160   -6.3330 O         1 <0>         0.0008
  33935 WAT       -32.9320  -75.4160   -6.0830 O         1 <0>         0.0028
  33936 WAT       -32.9320  -75.4160   -5.8330 O         1 <0>         0.0059
  33937 WAT       -32.9320  -75.4160   -5.5830 O         1 <0>         0.0086
  33938 WAT       -32.9320  -75.4160   -5.3330 O         1 <0>         0.0085
  33939 WAT       -32.9320  -75.4160   -5.0830 O         1 <0>         0.0060
  33940 WAT       -32.9320  -75.4160   -4.8330 O         1 <0>         0.0032
  33941 WAT       -32.9320  -75.4160   -4.5830 O         1 <0>         0.0015
  33942 WAT       -32.9320  -75.4160   -4.3330 O         1 <0>         0.0009
  33943 WAT       -32.9320  -75.4160   -4.0830 O         1 <0>         0.0007
  33944 WAT       -32.9320  -75.4160   -3.8330 O         1 <0>         0.0005
  33945 WAT       -32.9320  -75.4160   -3.5830 O         1 <0>         0.0004
  33946 WAT       -32.9320  -75.4160   -3.3330 O         1 <0>         0.0003
  33947 WAT       -32.9320  -75.4160   -3.0830 O         1 <0>         0.0003
  33948 WAT       -32.9320  -75.4160   -2.8330 O         1 <0>         0.0002
  33949 WAT       -32.9320  -75.4160   -2.5830 O         1 <0>         0.0001
  33950 WAT       -32.9320  -75.4160   -2.3330 O         1 <0>         0.0000
  33951 WAT       -32.9320  -75.4160   -2.0830 O         1 <0>         0.0000
  33952 WAT       -32.9320  -75.4160   -1.8330 O         1 <0>         0.0000
  33953 WAT       -32.9320  -75.4160   -1.5830 O         1 <0>         0.0000
  33954 WAT       -32.9320  -75.4160   -1.3330 O         1 <0>         0.0000
  33955 WAT       -32.9320  -75.4160   -1.0830 O         1 <0>         0.0000
  33956 WAT       -32.9320  -75.4160   -0.8330 O         1 <0>         0.0000
  33957 WAT       -32.9320  -75.4160   -0.5830 O         1 <0>         0.0000
  33958 WAT       -32.9320  -75.4160   -0.3330 O         1 <0>         0.0000
  33959 WAT       -32.9320  -75.4160   -0.0830 O         1 <0>         0.0000
  33960 WAT       -32.9320  -75.1660   -9.8330 O         1 <0>         0.0000
  33961 WAT       -32.9320  -75.1660   -9.5830 O         1 <0>         0.0000
  33962 WAT       -32.9320  -75.1660   -9.3330 O         1 <0>         0.0000
  33963 WAT       -32.9320  -75.1660   -9.0830 O         1 <0>         0.0000
  33964 WAT       -32.9320  -75.1660   -8.8330 O         1 <0>         0.0000
  33965 WAT       -32.9320  -75.1660   -8.5830 O         1 <0>         0.0000
  33966 WAT       -32.9320  -75.1660   -8.3330 O         1 <0>         0.0000
  33967 WAT       -32.9320  -75.1660   -8.0830 O         1 <0>         0.0000
  33968 WAT       -32.9320  -75.1660   -7.8330 O         1 <0>         0.0000
  33969 WAT       -32.9320  -75.1660   -7.5830 O         1 <0>         0.0000
  33970 WAT       -32.9320  -75.1660   -7.3330 O         1 <0>         0.0000
  33971 WAT       -32.9320  -75.1660   -7.0830 O         1 <0>         0.0000
  33972 WAT       -32.9320  -75.1660   -6.8330 O         1 <0>         0.0000
  33973 WAT       -32.9320  -75.1660   -6.5830 O         1 <0>         0.0005
  33974 WAT       -32.9320  -75.1660   -6.3330 O         1 <0>         0.0025
  33975 WAT       -32.9320  -75.1660   -6.0830 O         1 <0>         0.0074
  33976 WAT       -32.9320  -75.1660   -5.8330 O         1 <0>         0.0152
  33977 WAT       -32.9320  -75.1660   -5.5830 O         1 <0>         0.0218
  33978 WAT       -32.9320  -75.1660   -5.3330 O         1 <0>         0.0222
  33979 WAT       -32.9320  -75.1660   -5.0830 O         1 <0>         0.0167
  33980 WAT       -32.9320  -75.1660   -4.8330 O         1 <0>         0.0100
  33981 WAT       -32.9320  -75.1660   -4.5830 O         1 <0>         0.0054
  33982 WAT       -32.9320  -75.1660   -4.3330 O         1 <0>         0.0031
  33983 WAT       -32.9320  -75.1660   -4.0830 O         1 <0>         0.0021
  33984 WAT       -32.9320  -75.1660   -3.8330 O         1 <0>         0.0016
  33985 WAT       -32.9320  -75.1660   -3.5830 O         1 <0>         0.0013
  33986 WAT       -32.9320  -75.1660   -3.3330 O         1 <0>         0.0012
  33987 WAT       -32.9320  -75.1660   -3.0830 O         1 <0>         0.0013
  33988 WAT       -32.9320  -75.1660   -2.8330 O         1 <0>         0.0014
  33989 WAT       -32.9320  -75.1660   -2.5830 O         1 <0>         0.0011
  33990 WAT       -32.9320  -75.1660   -2.3330 O         1 <0>         0.0007
  33991 WAT       -32.9320  -75.1660   -2.0830 O         1 <0>         0.0002
  33992 WAT       -32.9320  -75.1660   -1.8330 O         1 <0>         0.0001
  33993 WAT       -32.9320  -75.1660   -1.5830 O         1 <0>         0.0000
  33994 WAT       -32.9320  -75.1660   -1.3330 O         1 <0>         0.0000
  33995 WAT       -32.9320  -75.1660   -1.0830 O         1 <0>         0.0000
  33996 WAT       -32.9320  -75.1660   -0.8330 O         1 <0>         0.0000
  33997 WAT       -32.9320  -75.1660   -0.5830 O         1 <0>         0.0000
  33998 WAT       -32.9320  -75.1660   -0.3330 O         1 <0>         0.0000
  33999 WAT       -32.9320  -75.1660   -0.0830 O         1 <0>         0.0000
  34000 WAT       -32.9320  -74.9160   -9.8330 O         1 <0>         0.0000
  34001 WAT       -32.9320  -74.9160   -9.5830 O         1 <0>         0.0000
  34002 WAT       -32.9320  -74.9160   -9.3330 O         1 <0>         0.0000
  34003 WAT       -32.9320  -74.9160   -9.0830 O         1 <0>         0.0000
  34004 WAT       -32.9320  -74.9160   -8.8330 O         1 <0>         0.0000
  34005 WAT       -32.9320  -74.9160   -8.5830 O         1 <0>         0.0000
  34006 WAT       -32.9320  -74.9160   -8.3330 O         1 <0>         0.0000
  34007 WAT       -32.9320  -74.9160   -8.0830 O         1 <0>         0.0000
  34008 WAT       -32.9320  -74.9160   -7.8330 O         1 <0>         0.0000
  34009 WAT       -32.9320  -74.9160   -7.5830 O         1 <0>         0.0000
  34010 WAT       -32.9320  -74.9160   -7.3330 O         1 <0>         0.0000
  34011 WAT       -32.9320  -74.9160   -7.0830 O         1 <0>         0.0000
  34012 WAT       -32.9320  -74.9160   -6.8330 O         1 <0>         0.0002
  34013 WAT       -32.9320  -74.9160   -6.5830 O         1 <0>         0.0013
  34014 WAT       -32.9320  -74.9160   -6.3330 O         1 <0>         0.0057
  34015 WAT       -32.9320  -74.9160   -6.0830 O         1 <0>         0.0156
  34016 WAT       -32.9320  -74.9160   -5.8330 O         1 <0>         0.0299
  34017 WAT       -32.9320  -74.9160   -5.5830 O         1 <0>         0.0419
  34018 WAT       -32.9320  -74.9160   -5.3330 O         1 <0>         0.0431
  34019 WAT       -32.9320  -74.9160   -5.0830 O         1 <0>         0.0338
  34020 WAT       -32.9320  -74.9160   -4.8330 O         1 <0>         0.0216
  34021 WAT       -32.9320  -74.9160   -4.5830 O         1 <0>         0.0123
  34022 WAT       -32.9320  -74.9160   -4.3330 O         1 <0>         0.0069
  34023 WAT       -32.9320  -74.9160   -4.0830 O         1 <0>         0.0043
  34024 WAT       -32.9320  -74.9160   -3.8330 O         1 <0>         0.0032
  34025 WAT       -32.9320  -74.9160   -3.5830 O         1 <0>         0.0031
  34026 WAT       -32.9320  -74.9160   -3.3330 O         1 <0>         0.0041
  34027 WAT       -32.9320  -74.9160   -3.0830 O         1 <0>         0.0060
  34028 WAT       -32.9320  -74.9160   -2.8330 O         1 <0>         0.0073
  34029 WAT       -32.9320  -74.9160   -2.5830 O         1 <0>         0.0067
  34030 WAT       -32.9320  -74.9160   -2.3330 O         1 <0>         0.0043
  34031 WAT       -32.9320  -74.9160   -2.0830 O         1 <0>         0.0018
  34032 WAT       -32.9320  -74.9160   -1.8330 O         1 <0>         0.0004
  34033 WAT       -32.9320  -74.9160   -1.5830 O         1 <0>         0.0001
  34034 WAT       -32.9320  -74.9160   -1.3330 O         1 <0>         0.0000
  34035 WAT       -32.9320  -74.9160   -1.0830 O         1 <0>         0.0000
  34036 WAT       -32.9320  -74.9160   -0.8330 O         1 <0>         0.0000
  34037 WAT       -32.9320  -74.9160   -0.5830 O         1 <0>         0.0000
  34038 WAT       -32.9320  -74.9160   -0.3330 O         1 <0>         0.0000
  34039 WAT       -32.9320  -74.9160   -0.0830 O         1 <0>         0.0000
  34040 WAT       -32.9320  -74.6660   -9.8330 O         1 <0>         0.0000
  34041 WAT       -32.9320  -74.6660   -9.5830 O         1 <0>         0.0000
  34042 WAT       -32.9320  -74.6660   -9.3330 O         1 <0>         0.0000
  34043 WAT       -32.9320  -74.6660   -9.0830 O         1 <0>         0.0000
  34044 WAT       -32.9320  -74.6660   -8.8330 O         1 <0>         0.0000
  34045 WAT       -32.9320  -74.6660   -8.5830 O         1 <0>         0.0000
  34046 WAT       -32.9320  -74.6660   -8.3330 O         1 <0>         0.0000
  34047 WAT       -32.9320  -74.6660   -8.0830 O         1 <0>         0.0000
  34048 WAT       -32.9320  -74.6660   -7.8330 O         1 <0>         0.0000
  34049 WAT       -32.9320  -74.6660   -7.5830 O         1 <0>         0.0000
  34050 WAT       -32.9320  -74.6660   -7.3330 O         1 <0>         0.0000
  34051 WAT       -32.9320  -74.6660   -7.0830 O         1 <0>         0.0000
  34052 WAT       -32.9320  -74.6660   -6.8330 O         1 <0>         0.0006
  34053 WAT       -32.9320  -74.6660   -6.5830 O         1 <0>         0.0031
  34054 WAT       -32.9320  -74.6660   -6.3330 O         1 <0>         0.0109
  34055 WAT       -32.9320  -74.6660   -6.0830 O         1 <0>         0.0263
  34056 WAT       -32.9320  -74.6660   -5.8330 O         1 <0>         0.0470
  34057 WAT       -32.9320  -74.6660   -5.5830 O         1 <0>         0.0630
  34058 WAT       -32.9320  -74.6660   -5.3330 O         1 <0>         0.0643
  34059 WAT       -32.9320  -74.6660   -5.0830 O         1 <0>         0.0512
  34060 WAT       -32.9320  -74.6660   -4.8330 O         1 <0>         0.0336
  34061 WAT       -32.9320  -74.6660   -4.5830 O         1 <0>         0.0194
  34062 WAT       -32.9320  -74.6660   -4.3330 O         1 <0>         0.0107
  34063 WAT       -32.9320  -74.6660   -4.0830 O         1 <0>         0.0064
  34064 WAT       -32.9320  -74.6660   -3.8330 O         1 <0>         0.0053
  34065 WAT       -32.9320  -74.6660   -3.5830 O         1 <0>         0.0077
  34066 WAT       -32.9320  -74.6660   -3.3330 O         1 <0>         0.0143
  34067 WAT       -32.9320  -74.6660   -3.0830 O         1 <0>         0.0234
  34068 WAT       -32.9320  -74.6660   -2.8330 O         1 <0>         0.0288
  34069 WAT       -32.9320  -74.6660   -2.5830 O         1 <0>         0.0260
  34070 WAT       -32.9320  -74.6660   -2.3330 O         1 <0>         0.0167
  34071 WAT       -32.9320  -74.6660   -2.0830 O         1 <0>         0.0074
  34072 WAT       -32.9320  -74.6660   -1.8330 O         1 <0>         0.0021
  34073 WAT       -32.9320  -74.6660   -1.5830 O         1 <0>         0.0004
  34074 WAT       -32.9320  -74.6660   -1.3330 O         1 <0>         0.0000
  34075 WAT       -32.9320  -74.6660   -1.0830 O         1 <0>         0.0000
  34076 WAT       -32.9320  -74.6660   -0.8330 O         1 <0>         0.0000
  34077 WAT       -32.9320  -74.6660   -0.5830 O         1 <0>         0.0000
  34078 WAT       -32.9320  -74.6660   -0.3330 O         1 <0>         0.0000
  34079 WAT       -32.9320  -74.6660   -0.0830 O         1 <0>         0.0000
  34080 WAT       -32.9320  -74.4160   -9.8330 O         1 <0>         0.0000
  34081 WAT       -32.9320  -74.4160   -9.5830 O         1 <0>         0.0000
  34082 WAT       -32.9320  -74.4160   -9.3330 O         1 <0>         0.0000
  34083 WAT       -32.9320  -74.4160   -9.0830 O         1 <0>         0.0000
  34084 WAT       -32.9320  -74.4160   -8.8330 O         1 <0>         0.0000
  34085 WAT       -32.9320  -74.4160   -8.5830 O         1 <0>         0.0000
  34086 WAT       -32.9320  -74.4160   -8.3330 O         1 <0>         0.0000
  34087 WAT       -32.9320  -74.4160   -8.0830 O         1 <0>         0.0000
  34088 WAT       -32.9320  -74.4160   -7.8330 O         1 <0>         0.0000
  34089 WAT       -32.9320  -74.4160   -7.5830 O         1 <0>         0.0000
  34090 WAT       -32.9320  -74.4160   -7.3330 O         1 <0>         0.0000
  34091 WAT       -32.9320  -74.4160   -7.0830 O         1 <0>         0.0003
  34092 WAT       -32.9320  -74.4160   -6.8330 O         1 <0>         0.0017
  34093 WAT       -32.9320  -74.4160   -6.5830 O         1 <0>         0.0064
  34094 WAT       -32.9320  -74.4160   -6.3330 O         1 <0>         0.0177
  34095 WAT       -32.9320  -74.4160   -6.0830 O         1 <0>         0.0373
  34096 WAT       -32.9320  -74.4160   -5.8330 O         1 <0>         0.0606
  34097 WAT       -32.9320  -74.4160   -5.5830 O         1 <0>         0.0766
  34098 WAT       -32.9320  -74.4160   -5.3330 O         1 <0>         0.0756
  34099 WAT       -32.9320  -74.4160   -5.0830 O         1 <0>         0.0596
  34100 WAT       -32.9320  -74.4160   -4.8330 O         1 <0>         0.0388
  34101 WAT       -32.9320  -74.4160   -4.5830 O         1 <0>         0.0221
  34102 WAT       -32.9320  -74.4160   -4.3330 O         1 <0>         0.0119
  34103 WAT       -32.9320  -74.4160   -4.0830 O         1 <0>         0.0076
  34104 WAT       -32.9320  -74.4160   -3.8330 O         1 <0>         0.0097
  34105 WAT       -32.9320  -74.4160   -3.5830 O         1 <0>         0.0216
  34106 WAT       -32.9320  -74.4160   -3.3330 O         1 <0>         0.0454
  34107 WAT       -32.9320  -74.4160   -3.0830 O         1 <0>         0.0724
  34108 WAT       -32.9320  -74.4160   -2.8330 O         1 <0>         0.0847
  34109 WAT       -32.9320  -74.4160   -2.5830 O         1 <0>         0.0722
  34110 WAT       -32.9320  -74.4160   -2.3330 O         1 <0>         0.0443
  34111 WAT       -32.9320  -74.4160   -2.0830 O         1 <0>         0.0192
  34112 WAT       -32.9320  -74.4160   -1.8330 O         1 <0>         0.0056
  34113 WAT       -32.9320  -74.4160   -1.5830 O         1 <0>         0.0010
  34114 WAT       -32.9320  -74.4160   -1.3330 O         1 <0>         0.0001
  34115 WAT       -32.9320  -74.4160   -1.0830 O         1 <0>         0.0000
  34116 WAT       -32.9320  -74.4160   -0.8330 O         1 <0>         0.0000
  34117 WAT       -32.9320  -74.4160   -0.5830 O         1 <0>         0.0000
  34118 WAT       -32.9320  -74.4160   -0.3330 O         1 <0>         0.0000
  34119 WAT       -32.9320  -74.4160   -0.0830 O         1 <0>         0.0000
  34120 WAT       -32.9320  -74.1660   -9.8330 O         1 <0>         0.0000
  34121 WAT       -32.9320  -74.1660   -9.5830 O         1 <0>         0.0000
  34122 WAT       -32.9320  -74.1660   -9.3330 O         1 <0>         0.0000
  34123 WAT       -32.9320  -74.1660   -9.0830 O         1 <0>         0.0000
  34124 WAT       -32.9320  -74.1660   -8.8330 O         1 <0>         0.0000
  34125 WAT       -32.9320  -74.1660   -8.5830 O         1 <0>         0.0000
  34126 WAT       -32.9320  -74.1660   -8.3330 O         1 <0>         0.0000
  34127 WAT       -32.9320  -74.1660   -8.0830 O         1 <0>         0.0000
  34128 WAT       -32.9320  -74.1660   -7.8330 O         1 <0>         0.0000
  34129 WAT       -32.9320  -74.1660   -7.5830 O         1 <0>         0.0000
  34130 WAT       -32.9320  -74.1660   -7.3330 O         1 <0>         0.0002
  34131 WAT       -32.9320  -74.1660   -7.0830 O         1 <0>         0.0011
  34132 WAT       -32.9320  -74.1660   -6.8330 O         1 <0>         0.0040
  34133 WAT       -32.9320  -74.1660   -6.5830 O         1 <0>         0.0113
  34134 WAT       -32.9320  -74.1660   -6.3330 O         1 <0>         0.0251
  34135 WAT       -32.9320  -74.1660   -6.0830 O         1 <0>         0.0454
  34136 WAT       -32.9320  -74.1660   -5.8330 O         1 <0>         0.0662
  34137 WAT       -32.9320  -74.1660   -5.5830 O         1 <0>         0.0776
  34138 WAT       -32.9320  -74.1660   -5.3330 O         1 <0>         0.0730
  34139 WAT       -32.9320  -74.1660   -5.0830 O         1 <0>         0.0554
  34140 WAT       -32.9320  -74.1660   -4.8330 O         1 <0>         0.0348
  34141 WAT       -32.9320  -74.1660   -4.5830 O         1 <0>         0.0190
  34142 WAT       -32.9320  -74.1660   -4.3330 O         1 <0>         0.0102
  34143 WAT       -32.9320  -74.1660   -4.0830 O         1 <0>         0.0088
  34144 WAT       -32.9320  -74.1660   -3.8330 O         1 <0>         0.0200
  34145 WAT       -32.9320  -74.1660   -3.5830 O         1 <0>         0.0539
  34146 WAT       -32.9320  -74.1660   -3.3330 O         1 <0>         0.1120
  34147 WAT       -32.9320  -74.1660   -3.0830 O         1 <0>         0.1695
  34148 WAT       -32.9320  -74.1660   -2.8330 O         1 <0>         0.1853
  34149 WAT       -32.9320  -74.1660   -2.5830 O         1 <0>         0.1462
  34150 WAT       -32.9320  -74.1660   -2.3330 O         1 <0>         0.0832
  34151 WAT       -32.9320  -74.1660   -2.0830 O         1 <0>         0.0338
  34152 WAT       -32.9320  -74.1660   -1.8330 O         1 <0>         0.0095
  34153 WAT       -32.9320  -74.1660   -1.5830 O         1 <0>         0.0016
  34154 WAT       -32.9320  -74.1660   -1.3330 O         1 <0>         0.0002
  34155 WAT       -32.9320  -74.1660   -1.0830 O         1 <0>         0.0000
  34156 WAT       -32.9320  -74.1660   -0.8330 O         1 <0>         0.0000
  34157 WAT       -32.9320  -74.1660   -0.5830 O         1 <0>         0.0000
  34158 WAT       -32.9320  -74.1660   -0.3330 O         1 <0>         0.0000
  34159 WAT       -32.9320  -74.1660   -0.0830 O         1 <0>         0.0000
  34160 WAT       -32.9320  -73.9160   -9.8330 O         1 <0>         0.0000
  34161 WAT       -32.9320  -73.9160   -9.5830 O         1 <0>         0.0000
  34162 WAT       -32.9320  -73.9160   -9.3330 O         1 <0>         0.0000
  34163 WAT       -32.9320  -73.9160   -9.0830 O         1 <0>         0.0000
  34164 WAT       -32.9320  -73.9160   -8.8330 O         1 <0>         0.0000
  34165 WAT       -32.9320  -73.9160   -8.5830 O         1 <0>         0.0000
  34166 WAT       -32.9320  -73.9160   -8.3330 O         1 <0>         0.0000
  34167 WAT       -32.9320  -73.9160   -8.0830 O         1 <0>         0.0000
  34168 WAT       -32.9320  -73.9160   -7.8330 O         1 <0>         0.0000
  34169 WAT       -32.9320  -73.9160   -7.5830 O         1 <0>         0.0000
  34170 WAT       -32.9320  -73.9160   -7.3330 O         1 <0>         0.0005
  34171 WAT       -32.9320  -73.9160   -7.0830 O         1 <0>         0.0024
  34172 WAT       -32.9320  -73.9160   -6.8330 O         1 <0>         0.0074
  34173 WAT       -32.9320  -73.9160   -6.5830 O         1 <0>         0.0168
  34174 WAT       -32.9320  -73.9160   -6.3330 O         1 <0>         0.0308
  34175 WAT       -32.9320  -73.9160   -6.0830 O         1 <0>         0.0476
  34176 WAT       -32.9320  -73.9160   -5.8330 O         1 <0>         0.0619
  34177 WAT       -32.9320  -73.9160   -5.5830 O         1 <0>         0.0672
  34178 WAT       -32.9320  -73.9160   -5.3330 O         1 <0>         0.0598
  34179 WAT       -32.9320  -73.9160   -5.0830 O         1 <0>         0.0432
  34180 WAT       -32.9320  -73.9160   -4.8330 O         1 <0>         0.0256
  34181 WAT       -32.9320  -73.9160   -4.5830 O         1 <0>         0.0130
  34182 WAT       -32.9320  -73.9160   -4.3330 O         1 <0>         0.0073
  34183 WAT       -32.9320  -73.9160   -4.0830 O         1 <0>         0.0110
  34184 WAT       -32.9320  -73.9160   -3.8330 O         1 <0>         0.0366
  34185 WAT       -32.9320  -73.9160   -3.5830 O         1 <0>         0.1021
  34186 WAT       -32.9320  -73.9160   -3.3330 O         1 <0>         0.2057
  34187 WAT       -32.9320  -73.9160   -3.0830 O         1 <0>         0.2947
  34188 WAT       -32.9320  -73.9160   -2.8330 O         1 <0>         0.2992
  34189 WAT       -32.9320  -73.9160   -2.5830 O         1 <0>         0.2164
  34190 WAT       -32.9320  -73.9160   -2.3330 O         1 <0>         0.1123
  34191 WAT       -32.9320  -73.9160   -2.0830 O         1 <0>         0.0416
  34192 WAT       -32.9320  -73.9160   -1.8330 O         1 <0>         0.0106
  34193 WAT       -32.9320  -73.9160   -1.5830 O         1 <0>         0.0016
  34194 WAT       -32.9320  -73.9160   -1.3330 O         1 <0>         0.0001
  34195 WAT       -32.9320  -73.9160   -1.0830 O         1 <0>         0.0000
  34196 WAT       -32.9320  -73.9160   -0.8330 O         1 <0>         0.0000
  34197 WAT       -32.9320  -73.9160   -0.5830 O         1 <0>         0.0000
  34198 WAT       -32.9320  -73.9160   -0.3330 O         1 <0>         0.0000
  34199 WAT       -32.9320  -73.9160   -0.0830 O         1 <0>         0.0000
  34200 WAT       -32.9320  -73.6660   -9.8330 O         1 <0>         0.0000
  34201 WAT       -32.9320  -73.6660   -9.5830 O         1 <0>         0.0000
  34202 WAT       -32.9320  -73.6660   -9.3330 O         1 <0>         0.0000
  34203 WAT       -32.9320  -73.6660   -9.0830 O         1 <0>         0.0000
  34204 WAT       -32.9320  -73.6660   -8.8330 O         1 <0>         0.0000
  34205 WAT       -32.9320  -73.6660   -8.5830 O         1 <0>         0.0000
  34206 WAT       -32.9320  -73.6660   -8.3330 O         1 <0>         0.0000
  34207 WAT       -32.9320  -73.6660   -8.0830 O         1 <0>         0.0000
  34208 WAT       -32.9320  -73.6660   -7.8330 O         1 <0>         0.0000
  34209 WAT       -32.9320  -73.6660   -7.5830 O         1 <0>         0.0001
  34210 WAT       -32.9320  -73.6660   -7.3330 O         1 <0>         0.0011
  34211 WAT       -32.9320  -73.6660   -7.0830 O         1 <0>         0.0041
  34212 WAT       -32.9320  -73.6660   -6.8330 O         1 <0>         0.0106
  34213 WAT       -32.9320  -73.6660   -6.5830 O         1 <0>         0.0203
  34214 WAT       -32.9320  -73.6660   -6.3330 O         1 <0>         0.0317
  34215 WAT       -32.9320  -73.6660   -6.0830 O         1 <0>         0.0425
  34216 WAT       -32.9320  -73.6660   -5.8330 O         1 <0>         0.0498
  34217 WAT       -32.9320  -73.6660   -5.5830 O         1 <0>         0.0505
  34218 WAT       -32.9320  -73.6660   -5.3330 O         1 <0>         0.0429
  34219 WAT       -32.9320  -73.6660   -5.0830 O         1 <0>         0.0295
  34220 WAT       -32.9320  -73.6660   -4.8330 O         1 <0>         0.0164
  34221 WAT       -32.9320  -73.6660   -4.5830 O         1 <0>         0.0078
  34222 WAT       -32.9320  -73.6660   -4.3330 O         1 <0>         0.0051
  34223 WAT       -32.9320  -73.6660   -4.0830 O         1 <0>         0.0135
  34224 WAT       -32.9320  -73.6660   -3.8330 O         1 <0>         0.0514
  34225 WAT       -32.9320  -73.6660   -3.5830 O         1 <0>         0.1426
  34226 WAT       -32.9320  -73.6660   -3.3330 O         1 <0>         0.2777
  34227 WAT       -32.9320  -73.6660   -3.0830 O         1 <0>         0.3771
  34228 WAT       -32.9320  -73.6660   -2.8330 O         1 <0>         0.3560
  34229 WAT       -32.9320  -73.6660   -2.5830 O         1 <0>         0.2355
  34230 WAT       -32.9320  -73.6660   -2.3330 O         1 <0>         0.1104
  34231 WAT       -32.9320  -73.6660   -2.0830 O         1 <0>         0.0364
  34232 WAT       -32.9320  -73.6660   -1.8330 O         1 <0>         0.0081
  34233 WAT       -32.9320  -73.6660   -1.5830 O         1 <0>         0.0010
  34234 WAT       -32.9320  -73.6660   -1.3330 O         1 <0>         0.0000
  34235 WAT       -32.9320  -73.6660   -1.0830 O         1 <0>         0.0000
  34236 WAT       -32.9320  -73.6660   -0.8330 O         1 <0>         0.0000
  34237 WAT       -32.9320  -73.6660   -0.5830 O         1 <0>         0.0000
  34238 WAT       -32.9320  -73.6660   -0.3330 O         1 <0>         0.0000
  34239 WAT       -32.9320  -73.6660   -0.0830 O         1 <0>         0.0000
  34240 WAT       -32.9320  -73.4160   -9.8330 O         1 <0>         0.0000
  34241 WAT       -32.9320  -73.4160   -9.5830 O         1 <0>         0.0000
  34242 WAT       -32.9320  -73.4160   -9.3330 O         1 <0>         0.0000
  34243 WAT       -32.9320  -73.4160   -9.0830 O         1 <0>         0.0000
  34244 WAT       -32.9320  -73.4160   -8.8330 O         1 <0>         0.0000
  34245 WAT       -32.9320  -73.4160   -8.5830 O         1 <0>         0.0000
  34246 WAT       -32.9320  -73.4160   -8.3330 O         1 <0>         0.0000
  34247 WAT       -32.9320  -73.4160   -8.0830 O         1 <0>         0.0000
  34248 WAT       -32.9320  -73.4160   -7.8330 O         1 <0>         0.0000
  34249 WAT       -32.9320  -73.4160   -7.5830 O         1 <0>         0.0003
  34250 WAT       -32.9320  -73.4160   -7.3330 O         1 <0>         0.0017
  34251 WAT       -32.9320  -73.4160   -7.0830 O         1 <0>         0.0055
  34252 WAT       -32.9320  -73.4160   -6.8330 O         1 <0>         0.0121
  34253 WAT       -32.9320  -73.4160   -6.5830 O         1 <0>         0.0199
  34254 WAT       -32.9320  -73.4160   -6.3330 O         1 <0>         0.0267
  34255 WAT       -32.9320  -73.4160   -6.0830 O         1 <0>         0.0317
  34256 WAT       -32.9320  -73.4160   -5.8330 O         1 <0>         0.0342
  34257 WAT       -32.9320  -73.4160   -5.5830 O         1 <0>         0.0329
  34258 WAT       -32.9320  -73.4160   -5.3330 O         1 <0>         0.0270
  34259 WAT       -32.9320  -73.4160   -5.0830 O         1 <0>         0.0180
  34260 WAT       -32.9320  -73.4160   -4.8330 O         1 <0>         0.0096
  34261 WAT       -32.9320  -73.4160   -4.5830 O         1 <0>         0.0044
  34262 WAT       -32.9320  -73.4160   -4.3330 O         1 <0>         0.0036
  34263 WAT       -32.9320  -73.4160   -4.0830 O         1 <0>         0.0137
  34264 WAT       -32.9320  -73.4160   -3.8330 O         1 <0>         0.0543
  34265 WAT       -32.9320  -73.4160   -3.5830 O         1 <0>         0.1481
  34266 WAT       -32.9320  -73.4160   -3.3330 O         1 <0>         0.2786
  34267 WAT       -32.9320  -73.4160   -3.0830 O         1 <0>         0.3598
  34268 WAT       -32.9320  -73.4160   -2.8330 O         1 <0>         0.3179
  34269 WAT       -32.9320  -73.4160   -2.5830 O         1 <0>         0.1933
  34270 WAT       -32.9320  -73.4160   -2.3330 O         1 <0>         0.0816
  34271 WAT       -32.9320  -73.4160   -2.0830 O         1 <0>         0.0234
  34272 WAT       -32.9320  -73.4160   -1.8330 O         1 <0>         0.0041
  34273 WAT       -32.9320  -73.4160   -1.5830 O         1 <0>         0.0003
  34274 WAT       -32.9320  -73.4160   -1.3330 O         1 <0>         0.0000
  34275 WAT       -32.9320  -73.4160   -1.0830 O         1 <0>         0.0000
  34276 WAT       -32.9320  -73.4160   -0.8330 O         1 <0>         0.0000
  34277 WAT       -32.9320  -73.4160   -0.5830 O         1 <0>         0.0000
  34278 WAT       -32.9320  -73.4160   -0.3330 O         1 <0>         0.0000
  34279 WAT       -32.9320  -73.4160   -0.0830 O         1 <0>         0.0000
  34280 WAT       -32.9320  -73.1660   -9.8330 O         1 <0>         0.0000
  34281 WAT       -32.9320  -73.1660   -9.5830 O         1 <0>         0.0000
  34282 WAT       -32.9320  -73.1660   -9.3330 O         1 <0>         0.0000
  34283 WAT       -32.9320  -73.1660   -9.0830 O         1 <0>         0.0000
  34284 WAT       -32.9320  -73.1660   -8.8330 O         1 <0>         0.0000
  34285 WAT       -32.9320  -73.1660   -8.5830 O         1 <0>         0.0000
  34286 WAT       -32.9320  -73.1660   -8.3330 O         1 <0>         0.0000
  34287 WAT       -32.9320  -73.1660   -8.0830 O         1 <0>         0.0000
  34288 WAT       -32.9320  -73.1660   -7.8330 O         1 <0>         0.0000
  34289 WAT       -32.9320  -73.1660   -7.5830 O         1 <0>         0.0005
  34290 WAT       -32.9320  -73.1660   -7.3330 O         1 <0>         0.0023
  34291 WAT       -32.9320  -73.1660   -7.0830 O         1 <0>         0.0065
  34292 WAT       -32.9320  -73.1660   -6.8330 O         1 <0>         0.0121
  34293 WAT       -32.9320  -73.1660   -6.5830 O         1 <0>         0.0165
  34294 WAT       -32.9320  -73.1660   -6.3330 O         1 <0>         0.0185
  34295 WAT       -32.9320  -73.1660   -6.0830 O         1 <0>         0.0194
  34296 WAT       -32.9320  -73.1660   -5.8330 O         1 <0>         0.0196
  34297 WAT       -32.9320  -73.1660   -5.5830 O         1 <0>         0.0182
  34298 WAT       -32.9320  -73.1660   -5.3330 O         1 <0>         0.0149
  34299 WAT       -32.9320  -73.1660   -5.0830 O         1 <0>         0.0101
  34300 WAT       -32.9320  -73.1660   -4.8330 O         1 <0>         0.0054
  34301 WAT       -32.9320  -73.1660   -4.5830 O         1 <0>         0.0026
  34302 WAT       -32.9320  -73.1660   -4.3330 O         1 <0>         0.0026
  34303 WAT       -32.9320  -73.1660   -4.0830 O         1 <0>         0.0111
  34304 WAT       -32.9320  -73.1660   -3.8330 O         1 <0>         0.0444
  34305 WAT       -32.9320  -73.1660   -3.5830 O         1 <0>         0.1193
  34306 WAT       -32.9320  -73.1660   -3.3330 O         1 <0>         0.2182
  34307 WAT       -32.9320  -73.1660   -3.0830 O         1 <0>         0.2705
  34308 WAT       -32.9320  -73.1660   -2.8330 O         1 <0>         0.2260
  34309 WAT       -32.9320  -73.1660   -2.5830 O         1 <0>         0.1276
  34310 WAT       -32.9320  -73.1660   -2.3330 O         1 <0>         0.0485
  34311 WAT       -32.9320  -73.1660   -2.0830 O         1 <0>         0.0115
  34312 WAT       -32.9320  -73.1660   -1.8330 O         1 <0>         0.0014
  34313 WAT       -32.9320  -73.1660   -1.5830 O         1 <0>         0.0001
  34314 WAT       -32.9320  -73.1660   -1.3330 O         1 <0>         0.0000
  34315 WAT       -32.9320  -73.1660   -1.0830 O         1 <0>         0.0000
  34316 WAT       -32.9320  -73.1660   -0.8330 O         1 <0>         0.0000
  34317 WAT       -32.9320  -73.1660   -0.5830 O         1 <0>         0.0000
  34318 WAT       -32.9320  -73.1660   -0.3330 O         1 <0>         0.0000
  34319 WAT       -32.9320  -73.1660   -0.0830 O         1 <0>         0.0000
  34320 WAT       -32.9320  -72.9160   -9.8330 O         1 <0>         0.0000
  34321 WAT       -32.9320  -72.9160   -9.5830 O         1 <0>         0.0000
  34322 WAT       -32.9320  -72.9160   -9.3330 O         1 <0>         0.0000
  34323 WAT       -32.9320  -72.9160   -9.0830 O         1 <0>         0.0000
  34324 WAT       -32.9320  -72.9160   -8.8330 O         1 <0>         0.0000
  34325 WAT       -32.9320  -72.9160   -8.5830 O         1 <0>         0.0000
  34326 WAT       -32.9320  -72.9160   -8.3330 O         1 <0>         0.0000
  34327 WAT       -32.9320  -72.9160   -8.0830 O         1 <0>         0.0000
  34328 WAT       -32.9320  -72.9160   -7.8330 O         1 <0>         0.0001
  34329 WAT       -32.9320  -72.9160   -7.5830 O         1 <0>         0.0006
  34330 WAT       -32.9320  -72.9160   -7.3330 O         1 <0>         0.0027
  34331 WAT       -32.9320  -72.9160   -7.0830 O         1 <0>         0.0069
  34332 WAT       -32.9320  -72.9160   -6.8330 O         1 <0>         0.0112
  34333 WAT       -32.9320  -72.9160   -6.5830 O         1 <0>         0.0126
  34334 WAT       -32.9320  -72.9160   -6.3330 O         1 <0>         0.0112
  34335 WAT       -32.9320  -72.9160   -6.0830 O         1 <0>         0.0098
  34336 WAT       -32.9320  -72.9160   -5.8330 O         1 <0>         0.0092
  34337 WAT       -32.9320  -72.9160   -5.5830 O         1 <0>         0.0087
  34338 WAT       -32.9320  -72.9160   -5.3330 O         1 <0>         0.0074
  34339 WAT       -32.9320  -72.9160   -5.0830 O         1 <0>         0.0054
  34340 WAT       -32.9320  -72.9160   -4.8330 O         1 <0>         0.0033
  34341 WAT       -32.9320  -72.9160   -4.5830 O         1 <0>         0.0019
  34342 WAT       -32.9320  -72.9160   -4.3330 O         1 <0>         0.0019
  34343 WAT       -32.9320  -72.9160   -4.0830 O         1 <0>         0.0074
  34344 WAT       -32.9320  -72.9160   -3.8330 O         1 <0>         0.0298
  34345 WAT       -32.9320  -72.9160   -3.5830 O         1 <0>         0.0805
  34346 WAT       -32.9320  -72.9160   -3.3330 O         1 <0>         0.1457
  34347 WAT       -32.9320  -72.9160   -3.0830 O         1 <0>         0.1762
  34348 WAT       -32.9320  -72.9160   -2.8330 O         1 <0>         0.1416
  34349 WAT       -32.9320  -72.9160   -2.5830 O         1 <0>         0.0753
  34350 WAT       -32.9320  -72.9160   -2.3330 O         1 <0>         0.0260
  34351 WAT       -32.9320  -72.9160   -2.0830 O         1 <0>         0.0052
  34352 WAT       -32.9320  -72.9160   -1.8330 O         1 <0>         0.0005
  34353 WAT       -32.9320  -72.9160   -1.5830 O         1 <0>         0.0000
  34354 WAT       -32.9320  -72.9160   -1.3330 O         1 <0>         0.0000
  34355 WAT       -32.9320  -72.9160   -1.0830 O         1 <0>         0.0000
  34356 WAT       -32.9320  -72.9160   -0.8330 O         1 <0>         0.0000
  34357 WAT       -32.9320  -72.9160   -0.5830 O         1 <0>         0.0000
  34358 WAT       -32.9320  -72.9160   -0.3330 O         1 <0>         0.0000
  34359 WAT       -32.9320  -72.9160   -0.0830 O         1 <0>         0.0000
  34360 WAT       -32.9320  -72.6660   -9.8330 O         1 <0>         0.0000
  34361 WAT       -32.9320  -72.6660   -9.5830 O         1 <0>         0.0000
  34362 WAT       -32.9320  -72.6660   -9.3330 O         1 <0>         0.0000
  34363 WAT       -32.9320  -72.6660   -9.0830 O         1 <0>         0.0000
  34364 WAT       -32.9320  -72.6660   -8.8330 O         1 <0>         0.0000
  34365 WAT       -32.9320  -72.6660   -8.5830 O         1 <0>         0.0000
  34366 WAT       -32.9320  -72.6660   -8.3330 O         1 <0>         0.0000
  34367 WAT       -32.9320  -72.6660   -8.0830 O         1 <0>         0.0000
  34368 WAT       -32.9320  -72.6660   -7.8330 O         1 <0>         0.0001
  34369 WAT       -32.9320  -72.6660   -7.5830 O         1 <0>         0.0008
  34370 WAT       -32.9320  -72.6660   -7.3330 O         1 <0>         0.0029
  34371 WAT       -32.9320  -72.6660   -7.0830 O         1 <0>         0.0067
  34372 WAT       -32.9320  -72.6660   -6.8330 O         1 <0>         0.0098
  34373 WAT       -32.9320  -72.6660   -6.5830 O         1 <0>         0.0094
  34374 WAT       -32.9320  -72.6660   -6.3330 O         1 <0>         0.0066
  34375 WAT       -32.9320  -72.6660   -6.0830 O         1 <0>         0.0045
  34376 WAT       -32.9320  -72.6660   -5.8330 O         1 <0>         0.0041
  34377 WAT       -32.9320  -72.6660   -5.5830 O         1 <0>         0.0042
  34378 WAT       -32.9320  -72.6660   -5.3330 O         1 <0>         0.0040
  34379 WAT       -32.9320  -72.6660   -5.0830 O         1 <0>         0.0033
  34380 WAT       -32.9320  -72.6660   -4.8330 O         1 <0>         0.0024
  34381 WAT       -32.9320  -72.6660   -4.5830 O         1 <0>         0.0016
  34382 WAT       -32.9320  -72.6660   -4.3330 O         1 <0>         0.0015
  34383 WAT       -32.9320  -72.6660   -4.0830 O         1 <0>         0.0044
  34384 WAT       -32.9320  -72.6660   -3.8330 O         1 <0>         0.0175
  34385 WAT       -32.9320  -72.6660   -3.5830 O         1 <0>         0.0480
  34386 WAT       -32.9320  -72.6660   -3.3330 O         1 <0>         0.0872
  34387 WAT       -32.9320  -72.6660   -3.0830 O         1 <0>         0.1046
  34388 WAT       -32.9320  -72.6660   -2.8330 O         1 <0>         0.0822
  34389 WAT       -32.9320  -72.6660   -2.5830 O         1 <0>         0.0420
  34390 WAT       -32.9320  -72.6660   -2.3330 O         1 <0>         0.0138
  34391 WAT       -32.9320  -72.6660   -2.0830 O         1 <0>         0.0026
  34392 WAT       -32.9320  -72.6660   -1.8330 O         1 <0>         0.0002
  34393 WAT       -32.9320  -72.6660   -1.5830 O         1 <0>         0.0000
  34394 WAT       -32.9320  -72.6660   -1.3330 O         1 <0>         0.0000
  34395 WAT       -32.9320  -72.6660   -1.0830 O         1 <0>         0.0000
  34396 WAT       -32.9320  -72.6660   -0.8330 O         1 <0>         0.0000
  34397 WAT       -32.9320  -72.6660   -0.5830 O         1 <0>         0.0000
  34398 WAT       -32.9320  -72.6660   -0.3330 O         1 <0>         0.0000
  34399 WAT       -32.9320  -72.6660   -0.0830 O         1 <0>         0.0000
  34400 WAT       -32.9320  -72.4160   -9.8330 O         1 <0>         0.0000
  34401 WAT       -32.9320  -72.4160   -9.5830 O         1 <0>         0.0000
  34402 WAT       -32.9320  -72.4160   -9.3330 O         1 <0>         0.0000
  34403 WAT       -32.9320  -72.4160   -9.0830 O         1 <0>         0.0000
  34404 WAT       -32.9320  -72.4160   -8.8330 O         1 <0>         0.0000
  34405 WAT       -32.9320  -72.4160   -8.5830 O         1 <0>         0.0000
  34406 WAT       -32.9320  -72.4160   -8.3330 O         1 <0>         0.0000
  34407 WAT       -32.9320  -72.4160   -8.0830 O         1 <0>         0.0000
  34408 WAT       -32.9320  -72.4160   -7.8330 O         1 <0>         0.0001
  34409 WAT       -32.9320  -72.4160   -7.5830 O         1 <0>         0.0008
  34410 WAT       -32.9320  -72.4160   -7.3330 O         1 <0>         0.0027
  34411 WAT       -32.9320  -72.4160   -7.0830 O         1 <0>         0.0058
  34412 WAT       -32.9320  -72.4160   -6.8330 O         1 <0>         0.0079
  34413 WAT       -32.9320  -72.4160   -6.5830 O         1 <0>         0.0069
  34414 WAT       -32.9320  -72.4160   -6.3330 O         1 <0>         0.0045
  34415 WAT       -32.9320  -72.4160   -6.0830 O         1 <0>         0.0030
  34416 WAT       -32.9320  -72.4160   -5.8330 O         1 <0>         0.0031
  34417 WAT       -32.9320  -72.4160   -5.5830 O         1 <0>         0.0035
  34418 WAT       -32.9320  -72.4160   -5.3330 O         1 <0>         0.0033
  34419 WAT       -32.9320  -72.4160   -5.0830 O         1 <0>         0.0026
  34420 WAT       -32.9320  -72.4160   -4.8330 O         1 <0>         0.0018
  34421 WAT       -32.9320  -72.4160   -4.5830 O         1 <0>         0.0012
  34422 WAT       -32.9320  -72.4160   -4.3330 O         1 <0>         0.0010
  34423 WAT       -32.9320  -72.4160   -4.0830 O         1 <0>         0.0022
  34424 WAT       -32.9320  -72.4160   -3.8330 O         1 <0>         0.0087
  34425 WAT       -32.9320  -72.4160   -3.5830 O         1 <0>         0.0241
  34426 WAT       -32.9320  -72.4160   -3.3330 O         1 <0>         0.0440
  34427 WAT       -32.9320  -72.4160   -3.0830 O         1 <0>         0.0524
  34428 WAT       -32.9320  -72.4160   -2.8330 O         1 <0>         0.0407
  34429 WAT       -32.9320  -72.4160   -2.5830 O         1 <0>         0.0205
  34430 WAT       -32.9320  -72.4160   -2.3330 O         1 <0>         0.0066
  34431 WAT       -32.9320  -72.4160   -2.0830 O         1 <0>         0.0012
  34432 WAT       -32.9320  -72.4160   -1.8330 O         1 <0>         0.0001
  34433 WAT       -32.9320  -72.4160   -1.5830 O         1 <0>         0.0000
  34434 WAT       -32.9320  -72.4160   -1.3330 O         1 <0>         0.0000
  34435 WAT       -32.9320  -72.4160   -1.0830 O         1 <0>         0.0000
  34436 WAT       -32.9320  -72.4160   -0.8330 O         1 <0>         0.0000
  34437 WAT       -32.9320  -72.4160   -0.5830 O         1 <0>         0.0000
  34438 WAT       -32.9320  -72.4160   -0.3330 O         1 <0>         0.0000
  34439 WAT       -32.9320  -72.4160   -0.0830 O         1 <0>         0.0000
  34440 WAT       -32.9320  -72.1660   -9.8330 O         1 <0>         0.0000
  34441 WAT       -32.9320  -72.1660   -9.5830 O         1 <0>         0.0000
  34442 WAT       -32.9320  -72.1660   -9.3330 O         1 <0>         0.0000
  34443 WAT       -32.9320  -72.1660   -9.0830 O         1 <0>         0.0000
  34444 WAT       -32.9320  -72.1660   -8.8330 O         1 <0>         0.0000
  34445 WAT       -32.9320  -72.1660   -8.5830 O         1 <0>         0.0000
  34446 WAT       -32.9320  -72.1660   -8.3330 O         1 <0>         0.0000
  34447 WAT       -32.9320  -72.1660   -8.0830 O         1 <0>         0.0000
  34448 WAT       -32.9320  -72.1660   -7.8330 O         1 <0>         0.0001
  34449 WAT       -32.9320  -72.1660   -7.5830 O         1 <0>         0.0006
  34450 WAT       -32.9320  -72.1660   -7.3330 O         1 <0>         0.0021
  34451 WAT       -32.9320  -72.1660   -7.0830 O         1 <0>         0.0043
  34452 WAT       -32.9320  -72.1660   -6.8330 O         1 <0>         0.0056
  34453 WAT       -32.9320  -72.1660   -6.5830 O         1 <0>         0.0050
  34454 WAT       -32.9320  -72.1660   -6.3330 O         1 <0>         0.0041
  34455 WAT       -32.9320  -72.1660   -6.0830 O         1 <0>         0.0042
  34456 WAT       -32.9320  -72.1660   -5.8330 O         1 <0>         0.0050
  34457 WAT       -32.9320  -72.1660   -5.5830 O         1 <0>         0.0050
  34458 WAT       -32.9320  -72.1660   -5.3330 O         1 <0>         0.0039
  34459 WAT       -32.9320  -72.1660   -5.0830 O         1 <0>         0.0025
  34460 WAT       -32.9320  -72.1660   -4.8330 O         1 <0>         0.0014
  34461 WAT       -32.9320  -72.1660   -4.5830 O         1 <0>         0.0008
  34462 WAT       -32.9320  -72.1660   -4.3330 O         1 <0>         0.0005
  34463 WAT       -32.9320  -72.1660   -4.0830 O         1 <0>         0.0008
  34464 WAT       -32.9320  -72.1660   -3.8330 O         1 <0>         0.0032
  34465 WAT       -32.9320  -72.1660   -3.5830 O         1 <0>         0.0091
  34466 WAT       -32.9320  -72.1660   -3.3330 O         1 <0>         0.0166
  34467 WAT       -32.9320  -72.1660   -3.0830 O         1 <0>         0.0196
  34468 WAT       -32.9320  -72.1660   -2.8330 O         1 <0>         0.0150
  34469 WAT       -32.9320  -72.1660   -2.5830 O         1 <0>         0.0074
  34470 WAT       -32.9320  -72.1660   -2.3330 O         1 <0>         0.0022
  34471 WAT       -32.9320  -72.1660   -2.0830 O         1 <0>         0.0003
  34472 WAT       -32.9320  -72.1660   -1.8330 O         1 <0>         0.0000
  34473 WAT       -32.9320  -72.1660   -1.5830 O         1 <0>         0.0000
  34474 WAT       -32.9320  -72.1660   -1.3330 O         1 <0>         0.0000
  34475 WAT       -32.9320  -72.1660   -1.0830 O         1 <0>         0.0000
  34476 WAT       -32.9320  -72.1660   -0.8330 O         1 <0>         0.0000
  34477 WAT       -32.9320  -72.1660   -0.5830 O         1 <0>         0.0000
  34478 WAT       -32.9320  -72.1660   -0.3330 O         1 <0>         0.0000
  34479 WAT       -32.9320  -72.1660   -0.0830 O         1 <0>         0.0000
  34480 WAT       -32.9320  -71.9160   -9.8330 O         1 <0>         0.0000
  34481 WAT       -32.9320  -71.9160   -9.5830 O         1 <0>         0.0000
  34482 WAT       -32.9320  -71.9160   -9.3330 O         1 <0>         0.0000
  34483 WAT       -32.9320  -71.9160   -9.0830 O         1 <0>         0.0000
  34484 WAT       -32.9320  -71.9160   -8.8330 O         1 <0>         0.0000
  34485 WAT       -32.9320  -71.9160   -8.5830 O         1 <0>         0.0000
  34486 WAT       -32.9320  -71.9160   -8.3330 O         1 <0>         0.0000
  34487 WAT       -32.9320  -71.9160   -8.0830 O         1 <0>         0.0000
  34488 WAT       -32.9320  -71.9160   -7.8330 O         1 <0>         0.0001
  34489 WAT       -32.9320  -71.9160   -7.5830 O         1 <0>         0.0005
  34490 WAT       -32.9320  -71.9160   -7.3330 O         1 <0>         0.0016
  34491 WAT       -32.9320  -71.9160   -7.0830 O         1 <0>         0.0031
  34492 WAT       -32.9320  -71.9160   -6.8330 O         1 <0>         0.0042
  34493 WAT       -32.9320  -71.9160   -6.5830 O         1 <0>         0.0052
  34494 WAT       -32.9320  -71.9160   -6.3330 O         1 <0>         0.0074
  34495 WAT       -32.9320  -71.9160   -6.0830 O         1 <0>         0.0096
  34496 WAT       -32.9320  -71.9160   -5.8330 O         1 <0>         0.0097
  34497 WAT       -32.9320  -71.9160   -5.5830 O         1 <0>         0.0075
  34498 WAT       -32.9320  -71.9160   -5.3330 O         1 <0>         0.0045
  34499 WAT       -32.9320  -71.9160   -5.0830 O         1 <0>         0.0022
  34500 WAT       -32.9320  -71.9160   -4.8330 O         1 <0>         0.0009
  34501 WAT       -32.9320  -71.9160   -4.5830 O         1 <0>         0.0004
  34502 WAT       -32.9320  -71.9160   -4.3330 O         1 <0>         0.0002
  34503 WAT       -32.9320  -71.9160   -4.0830 O         1 <0>         0.0002
  34504 WAT       -32.9320  -71.9160   -3.8330 O         1 <0>         0.0007
  34505 WAT       -32.9320  -71.9160   -3.5830 O         1 <0>         0.0022
  34506 WAT       -32.9320  -71.9160   -3.3330 O         1 <0>         0.0041
  34507 WAT       -32.9320  -71.9160   -3.0830 O         1 <0>         0.0048
  34508 WAT       -32.9320  -71.9160   -2.8330 O         1 <0>         0.0036
  34509 WAT       -32.9320  -71.9160   -2.5830 O         1 <0>         0.0016
  34510 WAT       -32.9320  -71.9160   -2.3330 O         1 <0>         0.0004
  34511 WAT       -32.9320  -71.9160   -2.0830 O         1 <0>         0.0000
  34512 WAT       -32.9320  -71.9160   -1.8330 O         1 <0>         0.0000
  34513 WAT       -32.9320  -71.9160   -1.5830 O         1 <0>         0.0000
  34514 WAT       -32.9320  -71.9160   -1.3330 O         1 <0>         0.0000
  34515 WAT       -32.9320  -71.9160   -1.0830 O         1 <0>         0.0000
  34516 WAT       -32.9320  -71.9160   -0.8330 O         1 <0>         0.0000
  34517 WAT       -32.9320  -71.9160   -0.5830 O         1 <0>         0.0000
  34518 WAT       -32.9320  -71.9160   -0.3330 O         1 <0>         0.0000
  34519 WAT       -32.9320  -71.9160   -0.0830 O         1 <0>         0.0000
  34520 WAT       -32.9320  -71.6660   -9.8330 O         1 <0>         0.0000
  34521 WAT       -32.9320  -71.6660   -9.5830 O         1 <0>         0.0000
  34522 WAT       -32.9320  -71.6660   -9.3330 O         1 <0>         0.0000
  34523 WAT       -32.9320  -71.6660   -9.0830 O         1 <0>         0.0000
  34524 WAT       -32.9320  -71.6660   -8.8330 O         1 <0>         0.0000
  34525 WAT       -32.9320  -71.6660   -8.5830 O         1 <0>         0.0000
  34526 WAT       -32.9320  -71.6660   -8.3330 O         1 <0>         0.0000
  34527 WAT       -32.9320  -71.6660   -8.0830 O         1 <0>         0.0000
  34528 WAT       -32.9320  -71.6660   -7.8330 O         1 <0>         0.0002
  34529 WAT       -32.9320  -71.6660   -7.5830 O         1 <0>         0.0008
  34530 WAT       -32.9320  -71.6660   -7.3330 O         1 <0>         0.0022
  34531 WAT       -32.9320  -71.6660   -7.0830 O         1 <0>         0.0040
  34532 WAT       -32.9320  -71.6660   -6.8330 O         1 <0>         0.0067
  34533 WAT       -32.9320  -71.6660   -6.5830 O         1 <0>         0.0131
  34534 WAT       -32.9320  -71.6660   -6.3330 O         1 <0>         0.0223
  34535 WAT       -32.9320  -71.6660   -6.0830 O         1 <0>         0.0270
  34536 WAT       -32.9320  -71.6660   -5.8330 O         1 <0>         0.0221
  34537 WAT       -32.9320  -71.6660   -5.5830 O         1 <0>         0.0124
  34538 WAT       -32.9320  -71.6660   -5.3330 O         1 <0>         0.0050
  34539 WAT       -32.9320  -71.6660   -5.0830 O         1 <0>         0.0016
  34540 WAT       -32.9320  -71.6660   -4.8330 O         1 <0>         0.0005
  34541 WAT       -32.9320  -71.6660   -4.5830 O         1 <0>         0.0001
  34542 WAT       -32.9320  -71.6660   -4.3330 O         1 <0>         0.0000
  34543 WAT       -32.9320  -71.6660   -4.0830 O         1 <0>         0.0000
  34544 WAT       -32.9320  -71.6660   -3.8330 O         1 <0>         0.0001
  34545 WAT       -32.9320  -71.6660   -3.5830 O         1 <0>         0.0002
  34546 WAT       -32.9320  -71.6660   -3.3330 O         1 <0>         0.0005
  34547 WAT       -32.9320  -71.6660   -3.0830 O         1 <0>         0.0006
  34548 WAT       -32.9320  -71.6660   -2.8330 O         1 <0>         0.0004
  34549 WAT       -32.9320  -71.6660   -2.5830 O         1 <0>         0.0001
  34550 WAT       -32.9320  -71.6660   -2.3330 O         1 <0>         0.0000
  34551 WAT       -32.9320  -71.6660   -2.0830 O         1 <0>         0.0000
  34552 WAT       -32.9320  -71.6660   -1.8330 O         1 <0>         0.0000
  34553 WAT       -32.9320  -71.6660   -1.5830 O         1 <0>         0.0000
  34554 WAT       -32.9320  -71.6660   -1.3330 O         1 <0>         0.0000
  34555 WAT       -32.9320  -71.6660   -1.0830 O         1 <0>         0.0000
  34556 WAT       -32.9320  -71.6660   -0.8330 O         1 <0>         0.0000
  34557 WAT       -32.9320  -71.6660   -0.5830 O         1 <0>         0.0000
  34558 WAT       -32.9320  -71.6660   -0.3330 O         1 <0>         0.0000
  34559 WAT       -32.9320  -71.6660   -0.0830 O         1 <0>         0.0000
  34560 WAT       -32.9320  -71.4160   -9.8330 O         1 <0>         0.0000
  34561 WAT       -32.9320  -71.4160   -9.5830 O         1 <0>         0.0000
  34562 WAT       -32.9320  -71.4160   -9.3330 O         1 <0>         0.0000
  34563 WAT       -32.9320  -71.4160   -9.0830 O         1 <0>         0.0000
  34564 WAT       -32.9320  -71.4160   -8.8330 O         1 <0>         0.0000
  34565 WAT       -32.9320  -71.4160   -8.5830 O         1 <0>         0.0000
  34566 WAT       -32.9320  -71.4160   -8.3330 O         1 <0>         0.0000
  34567 WAT       -32.9320  -71.4160   -8.0830 O         1 <0>         0.0001
  34568 WAT       -32.9320  -71.4160   -7.8330 O         1 <0>         0.0006
  34569 WAT       -32.9320  -71.4160   -7.5830 O         1 <0>         0.0023
  34570 WAT       -32.9320  -71.4160   -7.3330 O         1 <0>         0.0051
  34571 WAT       -32.9320  -71.4160   -7.0830 O         1 <0>         0.0094
  34572 WAT       -32.9320  -71.4160   -6.8330 O         1 <0>         0.0194
  34573 WAT       -32.9320  -71.4160   -6.5830 O         1 <0>         0.0409
  34574 WAT       -32.9320  -71.4160   -6.3330 O         1 <0>         0.0659
  34575 WAT       -32.9320  -71.4160   -6.0830 O         1 <0>         0.0720
  34576 WAT       -32.9320  -71.4160   -5.8330 O         1 <0>         0.0513
  34577 WAT       -32.9320  -71.4160   -5.5830 O         1 <0>         0.0236
  34578 WAT       -32.9320  -71.4160   -5.3330 O         1 <0>         0.0068
  34579 WAT       -32.9320  -71.4160   -5.0830 O         1 <0>         0.0012
  34580 WAT       -32.9320  -71.4160   -4.8330 O         1 <0>         0.0002
  34581 WAT       -32.9320  -71.4160   -4.5830 O         1 <0>         0.0000
  34582 WAT       -32.9320  -71.4160   -4.3330 O         1 <0>         0.0000
  34583 WAT       -32.9320  -71.4160   -4.0830 O         1 <0>         0.0000
  34584 WAT       -32.9320  -71.4160   -3.8330 O         1 <0>         0.0000
  34585 WAT       -32.9320  -71.4160   -3.5830 O         1 <0>         0.0000
  34586 WAT       -32.9320  -71.4160   -3.3330 O         1 <0>         0.0000
  34587 WAT       -32.9320  -71.4160   -3.0830 O         1 <0>         0.0000
  34588 WAT       -32.9320  -71.4160   -2.8330 O         1 <0>         0.0000
  34589 WAT       -32.9320  -71.4160   -2.5830 O         1 <0>         0.0000
  34590 WAT       -32.9320  -71.4160   -2.3330 O         1 <0>         0.0000
  34591 WAT       -32.9320  -71.4160   -2.0830 O         1 <0>         0.0000
  34592 WAT       -32.9320  -71.4160   -1.8330 O         1 <0>         0.0000
  34593 WAT       -32.9320  -71.4160   -1.5830 O         1 <0>         0.0000
  34594 WAT       -32.9320  -71.4160   -1.3330 O         1 <0>         0.0000
  34595 WAT       -32.9320  -71.4160   -1.0830 O         1 <0>         0.0000
  34596 WAT       -32.9320  -71.4160   -0.8330 O         1 <0>         0.0000
  34597 WAT       -32.9320  -71.4160   -0.5830 O         1 <0>         0.0000
  34598 WAT       -32.9320  -71.4160   -0.3330 O         1 <0>         0.0000
  34599 WAT       -32.9320  -71.4160   -0.0830 O         1 <0>         0.0000
  34600 WAT       -32.9320  -71.1660   -9.8330 O         1 <0>         0.0000
  34601 WAT       -32.9320  -71.1660   -9.5830 O         1 <0>         0.0000
  34602 WAT       -32.9320  -71.1660   -9.3330 O         1 <0>         0.0000
  34603 WAT       -32.9320  -71.1660   -9.0830 O         1 <0>         0.0000
  34604 WAT       -32.9320  -71.1660   -8.8330 O         1 <0>         0.0000
  34605 WAT       -32.9320  -71.1660   -8.5830 O         1 <0>         0.0000
  34606 WAT       -32.9320  -71.1660   -8.3330 O         1 <0>         0.0000
  34607 WAT       -32.9320  -71.1660   -8.0830 O         1 <0>         0.0003
  34608 WAT       -32.9320  -71.1660   -7.8330 O         1 <0>         0.0017
  34609 WAT       -32.9320  -71.1660   -7.5830 O         1 <0>         0.0054
  34610 WAT       -32.9320  -71.1660   -7.3330 O         1 <0>         0.0117
  34611 WAT       -32.9320  -71.1660   -7.0830 O         1 <0>         0.0235
  34612 WAT       -32.9320  -71.1660   -6.8330 O         1 <0>         0.0527
  34613 WAT       -32.9320  -71.1660   -6.5830 O         1 <0>         0.1064
  34614 WAT       -32.9320  -71.1660   -6.3330 O         1 <0>         0.1584
  34615 WAT       -32.9320  -71.1660   -6.0830 O         1 <0>         0.1586
  34616 WAT       -32.9320  -71.1660   -5.8330 O         1 <0>         0.1030
  34617 WAT       -32.9320  -71.1660   -5.5830 O         1 <0>         0.0424
  34618 WAT       -32.9320  -71.1660   -5.3330 O         1 <0>         0.0104
  34619 WAT       -32.9320  -71.1660   -5.0830 O         1 <0>         0.0012
  34620 WAT       -32.9320  -71.1660   -4.8330 O         1 <0>         0.0001
  34621 WAT       -32.9320  -71.1660   -4.5830 O         1 <0>         0.0000
  34622 WAT       -32.9320  -71.1660   -4.3330 O         1 <0>         0.0000
  34623 WAT       -32.9320  -71.1660   -4.0830 O         1 <0>         0.0000
  34624 WAT       -32.9320  -71.1660   -3.8330 O         1 <0>         0.0000
  34625 WAT       -32.9320  -71.1660   -3.5830 O         1 <0>         0.0000
  34626 WAT       -32.9320  -71.1660   -3.3330 O         1 <0>         0.0000
  34627 WAT       -32.9320  -71.1660   -3.0830 O         1 <0>         0.0000
  34628 WAT       -32.9320  -71.1660   -2.8330 O         1 <0>         0.0000
  34629 WAT       -32.9320  -71.1660   -2.5830 O         1 <0>         0.0000
  34630 WAT       -32.9320  -71.1660   -2.3330 O         1 <0>         0.0000
  34631 WAT       -32.9320  -71.1660   -2.0830 O         1 <0>         0.0000
  34632 WAT       -32.9320  -71.1660   -1.8330 O         1 <0>         0.0000
  34633 WAT       -32.9320  -71.1660   -1.5830 O         1 <0>         0.0000
  34634 WAT       -32.9320  -71.1660   -1.3330 O         1 <0>         0.0000
  34635 WAT       -32.9320  -71.1660   -1.0830 O         1 <0>         0.0000
  34636 WAT       -32.9320  -71.1660   -0.8330 O         1 <0>         0.0000
  34637 WAT       -32.9320  -71.1660   -0.5830 O         1 <0>         0.0000
  34638 WAT       -32.9320  -71.1660   -0.3330 O         1 <0>         0.0000
  34639 WAT       -32.9320  -71.1660   -0.0830 O         1 <0>         0.0000
  34640 WAT       -32.9320  -70.9160   -9.8330 O         1 <0>         0.0000
  34641 WAT       -32.9320  -70.9160   -9.5830 O         1 <0>         0.0000
  34642 WAT       -32.9320  -70.9160   -9.3330 O         1 <0>         0.0000
  34643 WAT       -32.9320  -70.9160   -9.0830 O         1 <0>         0.0000
  34644 WAT       -32.9320  -70.9160   -8.8330 O         1 <0>         0.0000
  34645 WAT       -32.9320  -70.9160   -8.5830 O         1 <0>         0.0000
  34646 WAT       -32.9320  -70.9160   -8.3330 O         1 <0>         0.0001
  34647 WAT       -32.9320  -70.9160   -8.0830 O         1 <0>         0.0007
  34648 WAT       -32.9320  -70.9160   -7.8330 O         1 <0>         0.0033
  34649 WAT       -32.9320  -70.9160   -7.5830 O         1 <0>         0.0099
  34650 WAT       -32.9320  -70.9160   -7.3330 O         1 <0>         0.0221
  34651 WAT       -32.9320  -70.9160   -7.0830 O         1 <0>         0.0494
  34652 WAT       -32.9320  -70.9160   -6.8330 O         1 <0>         0.1126
  34653 WAT       -32.9320  -70.9160   -6.5830 O         1 <0>         0.2160
  34654 WAT       -32.9320  -70.9160   -6.3330 O         1 <0>         0.2992
  34655 WAT       -32.9320  -70.9160   -6.0830 O         1 <0>         0.2773
  34656 WAT       -32.9320  -70.9160   -5.8330 O         1 <0>         0.1667
  34657 WAT       -32.9320  -70.9160   -5.5830 O         1 <0>         0.0635
  34658 WAT       -32.9320  -70.9160   -5.3330 O         1 <0>         0.0141
  34659 WAT       -32.9320  -70.9160   -5.0830 O         1 <0>         0.0012
  34660 WAT       -32.9320  -70.9160   -4.8330 O         1 <0>         0.0000
  34661 WAT       -32.9320  -70.9160   -4.5830 O         1 <0>         0.0000
  34662 WAT       -32.9320  -70.9160   -4.3330 O         1 <0>         0.0000
  34663 WAT       -32.9320  -70.9160   -4.0830 O         1 <0>         0.0000
  34664 WAT       -32.9320  -70.9160   -3.8330 O         1 <0>         0.0000
  34665 WAT       -32.9320  -70.9160   -3.5830 O         1 <0>         0.0000
  34666 WAT       -32.9320  -70.9160   -3.3330 O         1 <0>         0.0000
  34667 WAT       -32.9320  -70.9160   -3.0830 O         1 <0>         0.0000
  34668 WAT       -32.9320  -70.9160   -2.8330 O         1 <0>         0.0000
  34669 WAT       -32.9320  -70.9160   -2.5830 O         1 <0>         0.0000
  34670 WAT       -32.9320  -70.9160   -2.3330 O         1 <0>         0.0000
  34671 WAT       -32.9320  -70.9160   -2.0830 O         1 <0>         0.0000
  34672 WAT       -32.9320  -70.9160   -1.8330 O         1 <0>         0.0000
  34673 WAT       -32.9320  -70.9160   -1.5830 O         1 <0>         0.0000
  34674 WAT       -32.9320  -70.9160   -1.3330 O         1 <0>         0.0000
  34675 WAT       -32.9320  -70.9160   -1.0830 O         1 <0>         0.0000
  34676 WAT       -32.9320  -70.9160   -0.8330 O         1 <0>         0.0000
  34677 WAT       -32.9320  -70.9160   -0.5830 O         1 <0>         0.0000
  34678 WAT       -32.9320  -70.9160   -0.3330 O         1 <0>         0.0000
  34679 WAT       -32.9320  -70.9160   -0.0830 O         1 <0>         0.0000
  34680 WAT       -32.9320  -70.6660   -9.8330 O         1 <0>         0.0000
  34681 WAT       -32.9320  -70.6660   -9.5830 O         1 <0>         0.0000
  34682 WAT       -32.9320  -70.6660   -9.3330 O         1 <0>         0.0000
  34683 WAT       -32.9320  -70.6660   -9.0830 O         1 <0>         0.0000
  34684 WAT       -32.9320  -70.6660   -8.8330 O         1 <0>         0.0000
  34685 WAT       -32.9320  -70.6660   -8.5830 O         1 <0>         0.0000
  34686 WAT       -32.9320  -70.6660   -8.3330 O         1 <0>         0.0001
  34687 WAT       -32.9320  -70.6660   -8.0830 O         1 <0>         0.0011
  34688 WAT       -32.9320  -70.6660   -7.8330 O         1 <0>         0.0047
  34689 WAT       -32.9320  -70.6660   -7.5830 O         1 <0>         0.0137
  34690 WAT       -32.9320  -70.6660   -7.3330 O         1 <0>         0.0329
  34691 WAT       -32.9320  -70.6660   -7.0830 O         1 <0>         0.0801
  34692 WAT       -32.9320  -70.6660   -6.8330 O         1 <0>         0.1846
  34693 WAT       -32.9320  -70.6660   -6.5830 O         1 <0>         0.3398
  34694 WAT       -32.9320  -70.6660   -6.3330 O         1 <0>         0.4414
  34695 WAT       -32.9320  -70.6660   -6.0830 O         1 <0>         0.3813
  34696 WAT       -32.9320  -70.6660   -5.8330 O         1 <0>         0.2136
  34697 WAT       -32.9320  -70.6660   -5.5830 O         1 <0>         0.0761
  34698 WAT       -32.9320  -70.6660   -5.3330 O         1 <0>         0.0154
  34699 WAT       -32.9320  -70.6660   -5.0830 O         1 <0>         0.0010
  34700 WAT       -32.9320  -70.6660   -4.8330 O         1 <0>         0.0000
  34701 WAT       -32.9320  -70.6660   -4.5830 O         1 <0>         0.0000
  34702 WAT       -32.9320  -70.6660   -4.3330 O         1 <0>         0.0000
  34703 WAT       -32.9320  -70.6660   -4.0830 O         1 <0>         0.0000
  34704 WAT       -32.9320  -70.6660   -3.8330 O         1 <0>         0.0000
  34705 WAT       -32.9320  -70.6660   -3.5830 O         1 <0>         0.0000
  34706 WAT       -32.9320  -70.6660   -3.3330 O         1 <0>         0.0000
  34707 WAT       -32.9320  -70.6660   -3.0830 O         1 <0>         0.0000
  34708 WAT       -32.9320  -70.6660   -2.8330 O         1 <0>         0.0000
  34709 WAT       -32.9320  -70.6660   -2.5830 O         1 <0>         0.0000
  34710 WAT       -32.9320  -70.6660   -2.3330 O         1 <0>         0.0000
  34711 WAT       -32.9320  -70.6660   -2.0830 O         1 <0>         0.0000
  34712 WAT       -32.9320  -70.6660   -1.8330 O         1 <0>         0.0000
  34713 WAT       -32.9320  -70.6660   -1.5830 O         1 <0>         0.0000
  34714 WAT       -32.9320  -70.6660   -1.3330 O         1 <0>         0.0000
  34715 WAT       -32.9320  -70.6660   -1.0830 O         1 <0>         0.0000
  34716 WAT       -32.9320  -70.6660   -0.8330 O         1 <0>         0.0000
  34717 WAT       -32.9320  -70.6660   -0.5830 O         1 <0>         0.0000
  34718 WAT       -32.9320  -70.6660   -0.3330 O         1 <0>         0.0000
  34719 WAT       -32.9320  -70.6660   -0.0830 O         1 <0>         0.0000
  34720 WAT       -32.9320  -70.4160   -9.8330 O         1 <0>         0.0000
  34721 WAT       -32.9320  -70.4160   -9.5830 O         1 <0>         0.0000
  34722 WAT       -32.9320  -70.4160   -9.3330 O         1 <0>         0.0000
  34723 WAT       -32.9320  -70.4160   -9.0830 O         1 <0>         0.0000
  34724 WAT       -32.9320  -70.4160   -8.8330 O         1 <0>         0.0000
  34725 WAT       -32.9320  -70.4160   -8.5830 O         1 <0>         0.0000
  34726 WAT       -32.9320  -70.4160   -8.3330 O         1 <0>         0.0002
  34727 WAT       -32.9320  -70.4160   -8.0830 O         1 <0>         0.0011
  34728 WAT       -32.9320  -70.4160   -7.8330 O         1 <0>         0.0048
  34729 WAT       -32.9320  -70.4160   -7.5830 O         1 <0>         0.0143
  34730 WAT       -32.9320  -70.4160   -7.3330 O         1 <0>         0.0373
  34731 WAT       -32.9320  -70.4160   -7.0830 O         1 <0>         0.0980
  34732 WAT       -32.9320  -70.4160   -6.8330 O         1 <0>         0.2284
  34733 WAT       -32.9320  -70.4160   -6.5830 O         1 <0>         0.4068
  34734 WAT       -32.9320  -70.4160   -6.3330 O         1 <0>         0.5015
  34735 WAT       -32.9320  -70.4160   -6.0830 O         1 <0>         0.4087
  34736 WAT       -32.9320  -70.4160   -5.8330 O         1 <0>         0.2157
  34737 WAT       -32.9320  -70.4160   -5.5830 O         1 <0>         0.0722
  34738 WAT       -32.9320  -70.4160   -5.3330 O         1 <0>         0.0133
  34739 WAT       -32.9320  -70.4160   -5.0830 O         1 <0>         0.0007
  34740 WAT       -32.9320  -70.4160   -4.8330 O         1 <0>         0.0000
  34741 WAT       -32.9320  -70.4160   -4.5830 O         1 <0>         0.0000
  34742 WAT       -32.9320  -70.4160   -4.3330 O         1 <0>         0.0000
  34743 WAT       -32.9320  -70.4160   -4.0830 O         1 <0>         0.0000
  34744 WAT       -32.9320  -70.4160   -3.8330 O         1 <0>         0.0000
  34745 WAT       -32.9320  -70.4160   -3.5830 O         1 <0>         0.0000
  34746 WAT       -32.9320  -70.4160   -3.3330 O         1 <0>         0.0000
  34747 WAT       -32.9320  -70.4160   -3.0830 O         1 <0>         0.0000
  34748 WAT       -32.9320  -70.4160   -2.8330 O         1 <0>         0.0000
  34749 WAT       -32.9320  -70.4160   -2.5830 O         1 <0>         0.0000
  34750 WAT       -32.9320  -70.4160   -2.3330 O         1 <0>         0.0000
  34751 WAT       -32.9320  -70.4160   -2.0830 O         1 <0>         0.0000
  34752 WAT       -32.9320  -70.4160   -1.8330 O         1 <0>         0.0000
  34753 WAT       -32.9320  -70.4160   -1.5830 O         1 <0>         0.0000
  34754 WAT       -32.9320  -70.4160   -1.3330 O         1 <0>         0.0000
  34755 WAT       -32.9320  -70.4160   -1.0830 O         1 <0>         0.0000
  34756 WAT       -32.9320  -70.4160   -0.8330 O         1 <0>         0.0000
  34757 WAT       -32.9320  -70.4160   -0.5830 O         1 <0>         0.0000
  34758 WAT       -32.9320  -70.4160   -0.3330 O         1 <0>         0.0000
  34759 WAT       -32.9320  -70.4160   -0.0830 O         1 <0>         0.0000
  34760 WAT       -32.9320  -70.1660   -9.8330 O         1 <0>         0.0000
  34761 WAT       -32.9320  -70.1660   -9.5830 O         1 <0>         0.0000
  34762 WAT       -32.9320  -70.1660   -9.3330 O         1 <0>         0.0000
  34763 WAT       -32.9320  -70.1660   -9.0830 O         1 <0>         0.0000
  34764 WAT       -32.9320  -70.1660   -8.8330 O         1 <0>         0.0000
  34765 WAT       -32.9320  -70.1660   -8.5830 O         1 <0>         0.0000
  34766 WAT       -32.9320  -70.1660   -8.3330 O         1 <0>         0.0001
  34767 WAT       -32.9320  -70.1660   -8.0830 O         1 <0>         0.0009
  34768 WAT       -32.9320  -70.1660   -7.8330 O         1 <0>         0.0037
  34769 WAT       -32.9320  -70.1660   -7.5830 O         1 <0>         0.0111
  34770 WAT       -32.9320  -70.1660   -7.3330 O         1 <0>         0.0316
  34771 WAT       -32.9320  -70.1660   -7.0830 O         1 <0>         0.0883
  34772 WAT       -32.9320  -70.1660   -6.8330 O         1 <0>         0.2077
  34773 WAT       -32.9320  -70.1660   -6.5830 O         1 <0>         0.3610
  34774 WAT       -32.9320  -70.1660   -6.3330 O         1 <0>         0.4283
  34775 WAT       -32.9320  -70.1660   -6.0830 O         1 <0>         0.3344
  34776 WAT       -32.9320  -70.1660   -5.8330 O         1 <0>         0.1687
  34777 WAT       -32.9320  -70.1660   -5.5830 O         1 <0>         0.0534
  34778 WAT       -32.9320  -70.1660   -5.3330 O         1 <0>         0.0087
  34779 WAT       -32.9320  -70.1660   -5.0830 O         1 <0>         0.0004
  34780 WAT       -32.9320  -70.1660   -4.8330 O         1 <0>         0.0000
  34781 WAT       -32.9320  -70.1660   -4.5830 O         1 <0>         0.0000
  34782 WAT       -32.9320  -70.1660   -4.3330 O         1 <0>         0.0000
  34783 WAT       -32.9320  -70.1660   -4.0830 O         1 <0>         0.0000
  34784 WAT       -32.9320  -70.1660   -3.8330 O         1 <0>         0.0000
  34785 WAT       -32.9320  -70.1660   -3.5830 O         1 <0>         0.0000
  34786 WAT       -32.9320  -70.1660   -3.3330 O         1 <0>         0.0000
  34787 WAT       -32.9320  -70.1660   -3.0830 O         1 <0>         0.0000
  34788 WAT       -32.9320  -70.1660   -2.8330 O         1 <0>         0.0000
  34789 WAT       -32.9320  -70.1660   -2.5830 O         1 <0>         0.0000
  34790 WAT       -32.9320  -70.1660   -2.3330 O         1 <0>         0.0000
  34791 WAT       -32.9320  -70.1660   -2.0830 O         1 <0>         0.0000
  34792 WAT       -32.9320  -70.1660   -1.8330 O         1 <0>         0.0000
  34793 WAT       -32.9320  -70.1660   -1.5830 O         1 <0>         0.0000
  34794 WAT       -32.9320  -70.1660   -1.3330 O         1 <0>         0.0000
  34795 WAT       -32.9320  -70.1660   -1.0830 O         1 <0>         0.0000
  34796 WAT       -32.9320  -70.1660   -0.8330 O         1 <0>         0.0000
  34797 WAT       -32.9320  -70.1660   -0.5830 O         1 <0>         0.0000
  34798 WAT       -32.9320  -70.1660   -0.3330 O         1 <0>         0.0000
  34799 WAT       -32.9320  -70.1660   -0.0830 O         1 <0>         0.0000
  34800 WAT       -32.9320  -69.9160   -9.8330 O         1 <0>         0.0000
  34801 WAT       -32.9320  -69.9160   -9.5830 O         1 <0>         0.0000
  34802 WAT       -32.9320  -69.9160   -9.3330 O         1 <0>         0.0000
  34803 WAT       -32.9320  -69.9160   -9.0830 O         1 <0>         0.0000
  34804 WAT       -32.9320  -69.9160   -8.8330 O         1 <0>         0.0000
  34805 WAT       -32.9320  -69.9160   -8.5830 O         1 <0>         0.0000
  34806 WAT       -32.9320  -69.9160   -8.3330 O         1 <0>         0.0001
  34807 WAT       -32.9320  -69.9160   -8.0830 O         1 <0>         0.0005
  34808 WAT       -32.9320  -69.9160   -7.8330 O         1 <0>         0.0020
  34809 WAT       -32.9320  -69.9160   -7.5830 O         1 <0>         0.0063
  34810 WAT       -32.9320  -69.9160   -7.3330 O         1 <0>         0.0192
  34811 WAT       -32.9320  -69.9160   -7.0830 O         1 <0>         0.0568
  34812 WAT       -32.9320  -69.9160   -6.8330 O         1 <0>         0.1352
  34813 WAT       -32.9320  -69.9160   -6.5830 O         1 <0>         0.2315
  34814 WAT       -32.9320  -69.9160   -6.3330 O         1 <0>         0.2681
  34815 WAT       -32.9320  -69.9160   -6.0830 O         1 <0>         0.2036
  34816 WAT       -32.9320  -69.9160   -5.8330 O         1 <0>         0.0995
  34817 WAT       -32.9320  -69.9160   -5.5830 O         1 <0>         0.0298
  34818 WAT       -32.9320  -69.9160   -5.3330 O         1 <0>         0.0044
  34819 WAT       -32.9320  -69.9160   -5.0830 O         1 <0>         0.0002
  34820 WAT       -32.9320  -69.9160   -4.8330 O         1 <0>         0.0000
  34821 WAT       -32.9320  -69.9160   -4.5830 O         1 <0>         0.0000
  34822 WAT       -32.9320  -69.9160   -4.3330 O         1 <0>         0.0000
  34823 WAT       -32.9320  -69.9160   -4.0830 O         1 <0>         0.0000
  34824 WAT       -32.9320  -69.9160   -3.8330 O         1 <0>         0.0000
  34825 WAT       -32.9320  -69.9160   -3.5830 O         1 <0>         0.0000
  34826 WAT       -32.9320  -69.9160   -3.3330 O         1 <0>         0.0000
  34827 WAT       -32.9320  -69.9160   -3.0830 O         1 <0>         0.0000
  34828 WAT       -32.9320  -69.9160   -2.8330 O         1 <0>         0.0000
  34829 WAT       -32.9320  -69.9160   -2.5830 O         1 <0>         0.0000
  34830 WAT       -32.9320  -69.9160   -2.3330 O         1 <0>         0.0000
  34831 WAT       -32.9320  -69.9160   -2.0830 O         1 <0>         0.0000
  34832 WAT       -32.9320  -69.9160   -1.8330 O         1 <0>         0.0000
  34833 WAT       -32.9320  -69.9160   -1.5830 O         1 <0>         0.0000
  34834 WAT       -32.9320  -69.9160   -1.3330 O         1 <0>         0.0000
  34835 WAT       -32.9320  -69.9160   -1.0830 O         1 <0>         0.0000
  34836 WAT       -32.9320  -69.9160   -0.8330 O         1 <0>         0.0000
  34837 WAT       -32.9320  -69.9160   -0.5830 O         1 <0>         0.0000
  34838 WAT       -32.9320  -69.9160   -0.3330 O         1 <0>         0.0000
  34839 WAT       -32.9320  -69.9160   -0.0830 O         1 <0>         0.0000
  34840 WAT       -32.9320  -69.6660   -9.8330 O         1 <0>         0.0000
  34841 WAT       -32.9320  -69.6660   -9.5830 O         1 <0>         0.0000
  34842 WAT       -32.9320  -69.6660   -9.3330 O         1 <0>         0.0000
  34843 WAT       -32.9320  -69.6660   -9.0830 O         1 <0>         0.0000
  34844 WAT       -32.9320  -69.6660   -8.8330 O         1 <0>         0.0000
  34845 WAT       -32.9320  -69.6660   -8.5830 O         1 <0>         0.0000
  34846 WAT       -32.9320  -69.6660   -8.3330 O         1 <0>         0.0000
  34847 WAT       -32.9320  -69.6660   -8.0830 O         1 <0>         0.0002
  34848 WAT       -32.9320  -69.6660   -7.8330 O         1 <0>         0.0008
  34849 WAT       -32.9320  -69.6660   -7.5830 O         1 <0>         0.0025
  34850 WAT       -32.9320  -69.6660   -7.3330 O         1 <0>         0.0079
  34851 WAT       -32.9320  -69.6660   -7.0830 O         1 <0>         0.0252
  34852 WAT       -32.9320  -69.6660   -6.8330 O         1 <0>         0.0617
  34853 WAT       -32.9320  -69.6660   -6.5830 O         1 <0>         0.1055
  34854 WAT       -32.9320  -69.6660   -6.3330 O         1 <0>         0.1207
  34855 WAT       -32.9320  -69.6660   -6.0830 O         1 <0>         0.0901
  34856 WAT       -32.9320  -69.6660   -5.8330 O         1 <0>         0.0429
  34857 WAT       -32.9320  -69.6660   -5.5830 O         1 <0>         0.0121
  34858 WAT       -32.9320  -69.6660   -5.3330 O         1 <0>         0.0016
  34859 WAT       -32.9320  -69.6660   -5.0830 O         1 <0>         0.0001
  34860 WAT       -32.9320  -69.6660   -4.8330 O         1 <0>         0.0000
  34861 WAT       -32.9320  -69.6660   -4.5830 O         1 <0>         0.0000
  34862 WAT       -32.9320  -69.6660   -4.3330 O         1 <0>         0.0000
  34863 WAT       -32.9320  -69.6660   -4.0830 O         1 <0>         0.0000
  34864 WAT       -32.9320  -69.6660   -3.8330 O         1 <0>         0.0000
  34865 WAT       -32.9320  -69.6660   -3.5830 O         1 <0>         0.0000
  34866 WAT       -32.9320  -69.6660   -3.3330 O         1 <0>         0.0000
  34867 WAT       -32.9320  -69.6660   -3.0830 O         1 <0>         0.0000
  34868 WAT       -32.9320  -69.6660   -2.8330 O         1 <0>         0.0000
  34869 WAT       -32.9320  -69.6660   -2.5830 O         1 <0>         0.0000
  34870 WAT       -32.9320  -69.6660   -2.3330 O         1 <0>         0.0000
  34871 WAT       -32.9320  -69.6660   -2.0830 O         1 <0>         0.0000
  34872 WAT       -32.9320  -69.6660   -1.8330 O         1 <0>         0.0000
  34873 WAT       -32.9320  -69.6660   -1.5830 O         1 <0>         0.0000
  34874 WAT       -32.9320  -69.6660   -1.3330 O         1 <0>         0.0000
  34875 WAT       -32.9320  -69.6660   -1.0830 O         1 <0>         0.0000
  34876 WAT       -32.9320  -69.6660   -0.8330 O         1 <0>         0.0000
  34877 WAT       -32.9320  -69.6660   -0.5830 O         1 <0>         0.0000
  34878 WAT       -32.9320  -69.6660   -0.3330 O         1 <0>         0.0000
  34879 WAT       -32.9320  -69.6660   -0.0830 O         1 <0>         0.0000
  34880 WAT       -32.9320  -69.4160   -9.8330 O         1 <0>         0.0000
  34881 WAT       -32.9320  -69.4160   -9.5830 O         1 <0>         0.0000
  34882 WAT       -32.9320  -69.4160   -9.3330 O         1 <0>         0.0000
  34883 WAT       -32.9320  -69.4160   -9.0830 O         1 <0>         0.0000
  34884 WAT       -32.9320  -69.4160   -8.8330 O         1 <0>         0.0000
  34885 WAT       -32.9320  -69.4160   -8.5830 O         1 <0>         0.0000
  34886 WAT       -32.9320  -69.4160   -8.3330 O         1 <0>         0.0000
  34887 WAT       -32.9320  -69.4160   -8.0830 O         1 <0>         0.0001
  34888 WAT       -32.9320  -69.4160   -7.8330 O         1 <0>         0.0002
  34889 WAT       -32.9320  -69.4160   -7.5830 O         1 <0>         0.0006
  34890 WAT       -32.9320  -69.4160   -7.3330 O         1 <0>         0.0021
  34891 WAT       -32.9320  -69.4160   -7.0830 O         1 <0>         0.0073
  34892 WAT       -32.9320  -69.4160   -6.8330 O         1 <0>         0.0192
  34893 WAT       -32.9320  -69.4160   -6.5830 O         1 <0>         0.0336
  34894 WAT       -32.9320  -69.4160   -6.3330 O         1 <0>         0.0385
  34895 WAT       -32.9320  -69.4160   -6.0830 O         1 <0>         0.0284
  34896 WAT       -32.9320  -69.4160   -5.8330 O         1 <0>         0.0131
  34897 WAT       -32.9320  -69.4160   -5.5830 O         1 <0>         0.0034
  34898 WAT       -32.9320  -69.4160   -5.3330 O         1 <0>         0.0004
  34899 WAT       -32.9320  -69.4160   -5.0830 O         1 <0>         0.0000
  34900 WAT       -32.9320  -69.4160   -4.8330 O         1 <0>         0.0000
  34901 WAT       -32.9320  -69.4160   -4.5830 O         1 <0>         0.0000
  34902 WAT       -32.9320  -69.4160   -4.3330 O         1 <0>         0.0000
  34903 WAT       -32.9320  -69.4160   -4.0830 O         1 <0>         0.0000
  34904 WAT       -32.9320  -69.4160   -3.8330 O         1 <0>         0.0000
  34905 WAT       -32.9320  -69.4160   -3.5830 O         1 <0>         0.0000
  34906 WAT       -32.9320  -69.4160   -3.3330 O         1 <0>         0.0000
  34907 WAT       -32.9320  -69.4160   -3.0830 O         1 <0>         0.0000
  34908 WAT       -32.9320  -69.4160   -2.8330 O         1 <0>         0.0000
  34909 WAT       -32.9320  -69.4160   -2.5830 O         1 <0>         0.0000
  34910 WAT       -32.9320  -69.4160   -2.3330 O         1 <0>         0.0000
  34911 WAT       -32.9320  -69.4160   -2.0830 O         1 <0>         0.0000
  34912 WAT       -32.9320  -69.4160   -1.8330 O         1 <0>         0.0000
  34913 WAT       -32.9320  -69.4160   -1.5830 O         1 <0>         0.0000
  34914 WAT       -32.9320  -69.4160   -1.3330 O         1 <0>         0.0000
  34915 WAT       -32.9320  -69.4160   -1.0830 O         1 <0>         0.0000
  34916 WAT       -32.9320  -69.4160   -0.8330 O         1 <0>         0.0000
  34917 WAT       -32.9320  -69.4160   -0.5830 O         1 <0>         0.0000
  34918 WAT       -32.9320  -69.4160   -0.3330 O         1 <0>         0.0000
  34919 WAT       -32.9320  -69.4160   -0.0830 O         1 <0>         0.0000
  34920 WAT       -32.9320  -69.1660   -9.8330 O         1 <0>         0.0000
  34921 WAT       -32.9320  -69.1660   -9.5830 O         1 <0>         0.0000
  34922 WAT       -32.9320  -69.1660   -9.3330 O         1 <0>         0.0000
  34923 WAT       -32.9320  -69.1660   -9.0830 O         1 <0>         0.0000
  34924 WAT       -32.9320  -69.1660   -8.8330 O         1 <0>         0.0000
  34925 WAT       -32.9320  -69.1660   -8.5830 O         1 <0>         0.0000
  34926 WAT       -32.9320  -69.1660   -8.3330 O         1 <0>         0.0000
  34927 WAT       -32.9320  -69.1660   -8.0830 O         1 <0>         0.0000
  34928 WAT       -32.9320  -69.1660   -7.8330 O         1 <0>         0.0000
  34929 WAT       -32.9320  -69.1660   -7.5830 O         1 <0>         0.0001
  34930 WAT       -32.9320  -69.1660   -7.3330 O         1 <0>         0.0003
  34931 WAT       -32.9320  -69.1660   -7.0830 O         1 <0>         0.0013
  34932 WAT       -32.9320  -69.1660   -6.8330 O         1 <0>         0.0039
  34933 WAT       -32.9320  -69.1660   -6.5830 O         1 <0>         0.0072
  34934 WAT       -32.9320  -69.1660   -6.3330 O         1 <0>         0.0085
  34935 WAT       -32.9320  -69.1660   -6.0830 O         1 <0>         0.0063
  34936 WAT       -32.9320  -69.1660   -5.8330 O         1 <0>         0.0028
  34937 WAT       -32.9320  -69.1660   -5.5830 O         1 <0>         0.0007
  34938 WAT       -32.9320  -69.1660   -5.3330 O         1 <0>         0.0001
  34939 WAT       -32.9320  -69.1660   -5.0830 O         1 <0>         0.0000
  34940 WAT       -32.9320  -69.1660   -4.8330 O         1 <0>         0.0000
  34941 WAT       -32.9320  -69.1660   -4.5830 O         1 <0>         0.0000
  34942 WAT       -32.9320  -69.1660   -4.3330 O         1 <0>         0.0000
  34943 WAT       -32.9320  -69.1660   -4.0830 O         1 <0>         0.0000
  34944 WAT       -32.9320  -69.1660   -3.8330 O         1 <0>         0.0000
  34945 WAT       -32.9320  -69.1660   -3.5830 O         1 <0>         0.0000
  34946 WAT       -32.9320  -69.1660   -3.3330 O         1 <0>         0.0000
  34947 WAT       -32.9320  -69.1660   -3.0830 O         1 <0>         0.0000
  34948 WAT       -32.9320  -69.1660   -2.8330 O         1 <0>         0.0000
  34949 WAT       -32.9320  -69.1660   -2.5830 O         1 <0>         0.0000
  34950 WAT       -32.9320  -69.1660   -2.3330 O         1 <0>         0.0000
  34951 WAT       -32.9320  -69.1660   -2.0830 O         1 <0>         0.0000
  34952 WAT       -32.9320  -69.1660   -1.8330 O         1 <0>         0.0000
  34953 WAT       -32.9320  -69.1660   -1.5830 O         1 <0>         0.0000
  34954 WAT       -32.9320  -69.1660   -1.3330 O         1 <0>         0.0000
  34955 WAT       -32.9320  -69.1660   -1.0830 O         1 <0>         0.0000
  34956 WAT       -32.9320  -69.1660   -0.8330 O         1 <0>         0.0000
  34957 WAT       -32.9320  -69.1660   -0.5830 O         1 <0>         0.0000
  34958 WAT       -32.9320  -69.1660   -0.3330 O         1 <0>         0.0000
  34959 WAT       -32.9320  -69.1660   -0.0830 O         1 <0>         0.0000
  34960 WAT       -32.9320  -68.9160   -9.8330 O         1 <0>         0.0000
  34961 WAT       -32.9320  -68.9160   -9.5830 O         1 <0>         0.0000
  34962 WAT       -32.9320  -68.9160   -9.3330 O         1 <0>         0.0000
  34963 WAT       -32.9320  -68.9160   -9.0830 O         1 <0>         0.0000
  34964 WAT       -32.9320  -68.9160   -8.8330 O         1 <0>         0.0000
  34965 WAT       -32.9320  -68.9160   -8.5830 O         1 <0>         0.0000
  34966 WAT       -32.9320  -68.9160   -8.3330 O         1 <0>         0.0000
  34967 WAT       -32.9320  -68.9160   -8.0830 O         1 <0>         0.0000
  34968 WAT       -32.9320  -68.9160   -7.8330 O         1 <0>         0.0000
  34969 WAT       -32.9320  -68.9160   -7.5830 O         1 <0>         0.0000
  34970 WAT       -32.9320  -68.9160   -7.3330 O         1 <0>         0.0000
  34971 WAT       -32.9320  -68.9160   -7.0830 O         1 <0>         0.0001
  34972 WAT       -32.9320  -68.9160   -6.8330 O         1 <0>         0.0005
  34973 WAT       -32.9320  -68.9160   -6.5830 O         1 <0>         0.0011
  34974 WAT       -32.9320  -68.9160   -6.3330 O         1 <0>         0.0013
  34975 WAT       -32.9320  -68.9160   -6.0830 O         1 <0>         0.0010
  34976 WAT       -32.9320  -68.9160   -5.8330 O         1 <0>         0.0005
  34977 WAT       -32.9320  -68.9160   -5.5830 O         1 <0>         0.0001
  34978 WAT       -32.9320  -68.9160   -5.3330 O         1 <0>         0.0000
  34979 WAT       -32.9320  -68.9160   -5.0830 O         1 <0>         0.0000
  34980 WAT       -32.9320  -68.9160   -4.8330 O         1 <0>         0.0000
  34981 WAT       -32.9320  -68.9160   -4.5830 O         1 <0>         0.0000
  34982 WAT       -32.9320  -68.9160   -4.3330 O         1 <0>         0.0000
  34983 WAT       -32.9320  -68.9160   -4.0830 O         1 <0>         0.0000
  34984 WAT       -32.9320  -68.9160   -3.8330 O         1 <0>         0.0000
  34985 WAT       -32.9320  -68.9160   -3.5830 O         1 <0>         0.0000
  34986 WAT       -32.9320  -68.9160   -3.3330 O         1 <0>         0.0000
  34987 WAT       -32.9320  -68.9160   -3.0830 O         1 <0>         0.0000
  34988 WAT       -32.9320  -68.9160   -2.8330 O         1 <0>         0.0000
  34989 WAT       -32.9320  -68.9160   -2.5830 O         1 <0>         0.0000
  34990 WAT       -32.9320  -68.9160   -2.3330 O         1 <0>         0.0000
  34991 WAT       -32.9320  -68.9160   -2.0830 O         1 <0>         0.0000
  34992 WAT       -32.9320  -68.9160   -1.8330 O         1 <0>         0.0000
  34993 WAT       -32.9320  -68.9160   -1.5830 O         1 <0>         0.0000
  34994 WAT       -32.9320  -68.9160   -1.3330 O         1 <0>         0.0000
  34995 WAT       -32.9320  -68.9160   -1.0830 O         1 <0>         0.0000
  34996 WAT       -32.9320  -68.9160   -0.8330 O         1 <0>         0.0000
  34997 WAT       -32.9320  -68.9160   -0.5830 O         1 <0>         0.0000
  34998 WAT       -32.9320  -68.9160   -0.3330 O         1 <0>         0.0000
  34999 WAT       -32.9320  -68.9160   -0.0830 O         1 <0>         0.0000
  35000 WAT       -32.6820  -77.4160   -9.8330 O         1 <0>         0.0000
  35001 WAT       -32.6820  -77.4160   -9.5830 O         1 <0>         0.0000
  35002 WAT       -32.6820  -77.4160   -9.3330 O         1 <0>         0.0000
  35003 WAT       -32.6820  -77.4160   -9.0830 O         1 <0>         0.0000
  35004 WAT       -32.6820  -77.4160   -8.8330 O         1 <0>         0.0000
  35005 WAT       -32.6820  -77.4160   -8.5830 O         1 <0>         0.0000
  35006 WAT       -32.6820  -77.4160   -8.3330 O         1 <0>         0.0000
  35007 WAT       -32.6820  -77.4160   -8.0830 O         1 <0>         0.0000
  35008 WAT       -32.6820  -77.4160   -7.8330 O         1 <0>         0.0000
  35009 WAT       -32.6820  -77.4160   -7.5830 O         1 <0>         0.0000
  35010 WAT       -32.6820  -77.4160   -7.3330 O         1 <0>         0.0000
  35011 WAT       -32.6820  -77.4160   -7.0830 O         1 <0>         0.0000
  35012 WAT       -32.6820  -77.4160   -6.8330 O         1 <0>         0.0000
  35013 WAT       -32.6820  -77.4160   -6.5830 O         1 <0>         0.0000
  35014 WAT       -32.6820  -77.4160   -6.3330 O         1 <0>         0.0000
  35015 WAT       -32.6820  -77.4160   -6.0830 O         1 <0>         0.0000
  35016 WAT       -32.6820  -77.4160   -5.8330 O         1 <0>         0.0000
  35017 WAT       -32.6820  -77.4160   -5.5830 O         1 <0>         0.0000
  35018 WAT       -32.6820  -77.4160   -5.3330 O         1 <0>         0.0000
  35019 WAT       -32.6820  -77.4160   -5.0830 O         1 <0>         0.0000
  35020 WAT       -32.6820  -77.4160   -4.8330 O         1 <0>         0.0000
  35021 WAT       -32.6820  -77.4160   -4.5830 O         1 <0>         0.0000
  35022 WAT       -32.6820  -77.4160   -4.3330 O         1 <0>         0.0000
  35023 WAT       -32.6820  -77.4160   -4.0830 O         1 <0>         0.0000
  35024 WAT       -32.6820  -77.4160   -3.8330 O         1 <0>         0.0000
  35025 WAT       -32.6820  -77.4160   -3.5830 O         1 <0>         0.0000
  35026 WAT       -32.6820  -77.4160   -3.3330 O         1 <0>         0.0000
  35027 WAT       -32.6820  -77.4160   -3.0830 O         1 <0>         0.0000
  35028 WAT       -32.6820  -77.4160   -2.8330 O         1 <0>         0.0000
  35029 WAT       -32.6820  -77.4160   -2.5830 O         1 <0>         0.0000
  35030 WAT       -32.6820  -77.4160   -2.3330 O         1 <0>         0.0000
  35031 WAT       -32.6820  -77.4160   -2.0830 O         1 <0>         0.0000
  35032 WAT       -32.6820  -77.4160   -1.8330 O         1 <0>         0.0000
  35033 WAT       -32.6820  -77.4160   -1.5830 O         1 <0>         0.0000
  35034 WAT       -32.6820  -77.4160   -1.3330 O         1 <0>         0.0000
  35035 WAT       -32.6820  -77.4160   -1.0830 O         1 <0>         0.0000
  35036 WAT       -32.6820  -77.4160   -0.8330 O         1 <0>         0.0000
  35037 WAT       -32.6820  -77.4160   -0.5830 O         1 <0>         0.0000
  35038 WAT       -32.6820  -77.4160   -0.3330 O         1 <0>         0.0000
  35039 WAT       -32.6820  -77.4160   -0.0830 O         1 <0>         0.0000
  35040 WAT       -32.6820  -77.1660   -9.8330 O         1 <0>         0.0000
  35041 WAT       -32.6820  -77.1660   -9.5830 O         1 <0>         0.0000
  35042 WAT       -32.6820  -77.1660   -9.3330 O         1 <0>         0.0000
  35043 WAT       -32.6820  -77.1660   -9.0830 O         1 <0>         0.0000
  35044 WAT       -32.6820  -77.1660   -8.8330 O         1 <0>         0.0000
  35045 WAT       -32.6820  -77.1660   -8.5830 O         1 <0>         0.0000
  35046 WAT       -32.6820  -77.1660   -8.3330 O         1 <0>         0.0000
  35047 WAT       -32.6820  -77.1660   -8.0830 O         1 <0>         0.0000
  35048 WAT       -32.6820  -77.1660   -7.8330 O         1 <0>         0.0000
  35049 WAT       -32.6820  -77.1660   -7.5830 O         1 <0>         0.0000
  35050 WAT       -32.6820  -77.1660   -7.3330 O         1 <0>         0.0000
  35051 WAT       -32.6820  -77.1660   -7.0830 O         1 <0>         0.0000
  35052 WAT       -32.6820  -77.1660   -6.8330 O         1 <0>         0.0000
  35053 WAT       -32.6820  -77.1660   -6.5830 O         1 <0>         0.0000
  35054 WAT       -32.6820  -77.1660   -6.3330 O         1 <0>         0.0000
  35055 WAT       -32.6820  -77.1660   -6.0830 O         1 <0>         0.0000
  35056 WAT       -32.6820  -77.1660   -5.8330 O         1 <0>         0.0000
  35057 WAT       -32.6820  -77.1660   -5.5830 O         1 <0>         0.0000
  35058 WAT       -32.6820  -77.1660   -5.3330 O         1 <0>         0.0000
  35059 WAT       -32.6820  -77.1660   -5.0830 O         1 <0>         0.0000
  35060 WAT       -32.6820  -77.1660   -4.8330 O         1 <0>         0.0000
  35061 WAT       -32.6820  -77.1660   -4.5830 O         1 <0>         0.0000
  35062 WAT       -32.6820  -77.1660   -4.3330 O         1 <0>         0.0000
  35063 WAT       -32.6820  -77.1660   -4.0830 O         1 <0>         0.0000
  35064 WAT       -32.6820  -77.1660   -3.8330 O         1 <0>         0.0000
  35065 WAT       -32.6820  -77.1660   -3.5830 O         1 <0>         0.0000
  35066 WAT       -32.6820  -77.1660   -3.3330 O         1 <0>         0.0000
  35067 WAT       -32.6820  -77.1660   -3.0830 O         1 <0>         0.0000
  35068 WAT       -32.6820  -77.1660   -2.8330 O         1 <0>         0.0000
  35069 WAT       -32.6820  -77.1660   -2.5830 O         1 <0>         0.0000
  35070 WAT       -32.6820  -77.1660   -2.3330 O         1 <0>         0.0000
  35071 WAT       -32.6820  -77.1660   -2.0830 O         1 <0>         0.0000
  35072 WAT       -32.6820  -77.1660   -1.8330 O         1 <0>         0.0000
  35073 WAT       -32.6820  -77.1660   -1.5830 O         1 <0>         0.0000
  35074 WAT       -32.6820  -77.1660   -1.3330 O         1 <0>         0.0000
  35075 WAT       -32.6820  -77.1660   -1.0830 O         1 <0>         0.0000
  35076 WAT       -32.6820  -77.1660   -0.8330 O         1 <0>         0.0000
  35077 WAT       -32.6820  -77.1660   -0.5830 O         1 <0>         0.0000
  35078 WAT       -32.6820  -77.1660   -0.3330 O         1 <0>         0.0000
  35079 WAT       -32.6820  -77.1660   -0.0830 O         1 <0>         0.0000
  35080 WAT       -32.6820  -76.9160   -9.8330 O         1 <0>         0.0000
  35081 WAT       -32.6820  -76.9160   -9.5830 O         1 <0>         0.0000
  35082 WAT       -32.6820  -76.9160   -9.3330 O         1 <0>         0.0000
  35083 WAT       -32.6820  -76.9160   -9.0830 O         1 <0>         0.0000
  35084 WAT       -32.6820  -76.9160   -8.8330 O         1 <0>         0.0000
  35085 WAT       -32.6820  -76.9160   -8.5830 O         1 <0>         0.0000
  35086 WAT       -32.6820  -76.9160   -8.3330 O         1 <0>         0.0000
  35087 WAT       -32.6820  -76.9160   -8.0830 O         1 <0>         0.0000
  35088 WAT       -32.6820  -76.9160   -7.8330 O         1 <0>         0.0000
  35089 WAT       -32.6820  -76.9160   -7.5830 O         1 <0>         0.0000
  35090 WAT       -32.6820  -76.9160   -7.3330 O         1 <0>         0.0000
  35091 WAT       -32.6820  -76.9160   -7.0830 O         1 <0>         0.0000
  35092 WAT       -32.6820  -76.9160   -6.8330 O         1 <0>         0.0000
  35093 WAT       -32.6820  -76.9160   -6.5830 O         1 <0>         0.0000
  35094 WAT       -32.6820  -76.9160   -6.3330 O         1 <0>         0.0000
  35095 WAT       -32.6820  -76.9160   -6.0830 O         1 <0>         0.0000
  35096 WAT       -32.6820  -76.9160   -5.8330 O         1 <0>         0.0000
  35097 WAT       -32.6820  -76.9160   -5.5830 O         1 <0>         0.0000
  35098 WAT       -32.6820  -76.9160   -5.3330 O         1 <0>         0.0000
  35099 WAT       -32.6820  -76.9160   -5.0830 O         1 <0>         0.0000
  35100 WAT       -32.6820  -76.9160   -4.8330 O         1 <0>         0.0000
  35101 WAT       -32.6820  -76.9160   -4.5830 O         1 <0>         0.0000
  35102 WAT       -32.6820  -76.9160   -4.3330 O         1 <0>         0.0000
  35103 WAT       -32.6820  -76.9160   -4.0830 O         1 <0>         0.0000
  35104 WAT       -32.6820  -76.9160   -3.8330 O         1 <0>         0.0000
  35105 WAT       -32.6820  -76.9160   -3.5830 O         1 <0>         0.0000
  35106 WAT       -32.6820  -76.9160   -3.3330 O         1 <0>         0.0000
  35107 WAT       -32.6820  -76.9160   -3.0830 O         1 <0>         0.0000
  35108 WAT       -32.6820  -76.9160   -2.8330 O         1 <0>         0.0000
  35109 WAT       -32.6820  -76.9160   -2.5830 O         1 <0>         0.0000
  35110 WAT       -32.6820  -76.9160   -2.3330 O         1 <0>         0.0000
  35111 WAT       -32.6820  -76.9160   -2.0830 O         1 <0>         0.0000
  35112 WAT       -32.6820  -76.9160   -1.8330 O         1 <0>         0.0000
  35113 WAT       -32.6820  -76.9160   -1.5830 O         1 <0>         0.0000
  35114 WAT       -32.6820  -76.9160   -1.3330 O         1 <0>         0.0000
  35115 WAT       -32.6820  -76.9160   -1.0830 O         1 <0>         0.0000
  35116 WAT       -32.6820  -76.9160   -0.8330 O         1 <0>         0.0000
  35117 WAT       -32.6820  -76.9160   -0.5830 O         1 <0>         0.0000
  35118 WAT       -32.6820  -76.9160   -0.3330 O         1 <0>         0.0000
  35119 WAT       -32.6820  -76.9160   -0.0830 O         1 <0>         0.0000
  35120 WAT       -32.6820  -76.6660   -9.8330 O         1 <0>         0.0000
  35121 WAT       -32.6820  -76.6660   -9.5830 O         1 <0>         0.0000
  35122 WAT       -32.6820  -76.6660   -9.3330 O         1 <0>         0.0000
  35123 WAT       -32.6820  -76.6660   -9.0830 O         1 <0>         0.0000
  35124 WAT       -32.6820  -76.6660   -8.8330 O         1 <0>         0.0000
  35125 WAT       -32.6820  -76.6660   -8.5830 O         1 <0>         0.0000
  35126 WAT       -32.6820  -76.6660   -8.3330 O         1 <0>         0.0000
  35127 WAT       -32.6820  -76.6660   -8.0830 O         1 <0>         0.0000
  35128 WAT       -32.6820  -76.6660   -7.8330 O         1 <0>         0.0000
  35129 WAT       -32.6820  -76.6660   -7.5830 O         1 <0>         0.0000
  35130 WAT       -32.6820  -76.6660   -7.3330 O         1 <0>         0.0000
  35131 WAT       -32.6820  -76.6660   -7.0830 O         1 <0>         0.0000
  35132 WAT       -32.6820  -76.6660   -6.8330 O         1 <0>         0.0000
  35133 WAT       -32.6820  -76.6660   -6.5830 O         1 <0>         0.0000
  35134 WAT       -32.6820  -76.6660   -6.3330 O         1 <0>         0.0000
  35135 WAT       -32.6820  -76.6660   -6.0830 O         1 <0>         0.0000
  35136 WAT       -32.6820  -76.6660   -5.8330 O         1 <0>         0.0000
  35137 WAT       -32.6820  -76.6660   -5.5830 O         1 <0>         0.0000
  35138 WAT       -32.6820  -76.6660   -5.3330 O         1 <0>         0.0000
  35139 WAT       -32.6820  -76.6660   -5.0830 O         1 <0>         0.0000
  35140 WAT       -32.6820  -76.6660   -4.8330 O         1 <0>         0.0000
  35141 WAT       -32.6820  -76.6660   -4.5830 O         1 <0>         0.0000
  35142 WAT       -32.6820  -76.6660   -4.3330 O         1 <0>         0.0000
  35143 WAT       -32.6820  -76.6660   -4.0830 O         1 <0>         0.0000
  35144 WAT       -32.6820  -76.6660   -3.8330 O         1 <0>         0.0000
  35145 WAT       -32.6820  -76.6660   -3.5830 O         1 <0>         0.0000
  35146 WAT       -32.6820  -76.6660   -3.3330 O         1 <0>         0.0000
  35147 WAT       -32.6820  -76.6660   -3.0830 O         1 <0>         0.0000
  35148 WAT       -32.6820  -76.6660   -2.8330 O         1 <0>         0.0000
  35149 WAT       -32.6820  -76.6660   -2.5830 O         1 <0>         0.0000
  35150 WAT       -32.6820  -76.6660   -2.3330 O         1 <0>         0.0000
  35151 WAT       -32.6820  -76.6660   -2.0830 O         1 <0>         0.0000
  35152 WAT       -32.6820  -76.6660   -1.8330 O         1 <0>         0.0000
  35153 WAT       -32.6820  -76.6660   -1.5830 O         1 <0>         0.0000
  35154 WAT       -32.6820  -76.6660   -1.3330 O         1 <0>         0.0000
  35155 WAT       -32.6820  -76.6660   -1.0830 O         1 <0>         0.0000
  35156 WAT       -32.6820  -76.6660   -0.8330 O         1 <0>         0.0000
  35157 WAT       -32.6820  -76.6660   -0.5830 O         1 <0>         0.0000
  35158 WAT       -32.6820  -76.6660   -0.3330 O         1 <0>         0.0000
  35159 WAT       -32.6820  -76.6660   -0.0830 O         1 <0>         0.0000
  35160 WAT       -32.6820  -76.4160   -9.8330 O         1 <0>         0.0000
  35161 WAT       -32.6820  -76.4160   -9.5830 O         1 <0>         0.0000
  35162 WAT       -32.6820  -76.4160   -9.3330 O         1 <0>         0.0000
  35163 WAT       -32.6820  -76.4160   -9.0830 O         1 <0>         0.0000
  35164 WAT       -32.6820  -76.4160   -8.8330 O         1 <0>         0.0000
  35165 WAT       -32.6820  -76.4160   -8.5830 O         1 <0>         0.0000
  35166 WAT       -32.6820  -76.4160   -8.3330 O         1 <0>         0.0000
  35167 WAT       -32.6820  -76.4160   -8.0830 O         1 <0>         0.0000
  35168 WAT       -32.6820  -76.4160   -7.8330 O         1 <0>         0.0000
  35169 WAT       -32.6820  -76.4160   -7.5830 O         1 <0>         0.0000
  35170 WAT       -32.6820  -76.4160   -7.3330 O         1 <0>         0.0000
  35171 WAT       -32.6820  -76.4160   -7.0830 O         1 <0>         0.0000
  35172 WAT       -32.6820  -76.4160   -6.8330 O         1 <0>         0.0000
  35173 WAT       -32.6820  -76.4160   -6.5830 O         1 <0>         0.0000
  35174 WAT       -32.6820  -76.4160   -6.3330 O         1 <0>         0.0000
  35175 WAT       -32.6820  -76.4160   -6.0830 O         1 <0>         0.0000
  35176 WAT       -32.6820  -76.4160   -5.8330 O         1 <0>         0.0000
  35177 WAT       -32.6820  -76.4160   -5.5830 O         1 <0>         0.0000
  35178 WAT       -32.6820  -76.4160   -5.3330 O         1 <0>         0.0000
  35179 WAT       -32.6820  -76.4160   -5.0830 O         1 <0>         0.0000
  35180 WAT       -32.6820  -76.4160   -4.8330 O         1 <0>         0.0000
  35181 WAT       -32.6820  -76.4160   -4.5830 O         1 <0>         0.0000
  35182 WAT       -32.6820  -76.4160   -4.3330 O         1 <0>         0.0000
  35183 WAT       -32.6820  -76.4160   -4.0830 O         1 <0>         0.0000
  35184 WAT       -32.6820  -76.4160   -3.8330 O         1 <0>         0.0000
  35185 WAT       -32.6820  -76.4160   -3.5830 O         1 <0>         0.0000
  35186 WAT       -32.6820  -76.4160   -3.3330 O         1 <0>         0.0000
  35187 WAT       -32.6820  -76.4160   -3.0830 O         1 <0>         0.0000
  35188 WAT       -32.6820  -76.4160   -2.8330 O         1 <0>         0.0000
  35189 WAT       -32.6820  -76.4160   -2.5830 O         1 <0>         0.0000
  35190 WAT       -32.6820  -76.4160   -2.3330 O         1 <0>         0.0000
  35191 WAT       -32.6820  -76.4160   -2.0830 O         1 <0>         0.0000
  35192 WAT       -32.6820  -76.4160   -1.8330 O         1 <0>         0.0000
  35193 WAT       -32.6820  -76.4160   -1.5830 O         1 <0>         0.0000
  35194 WAT       -32.6820  -76.4160   -1.3330 O         1 <0>         0.0000
  35195 WAT       -32.6820  -76.4160   -1.0830 O         1 <0>         0.0000
  35196 WAT       -32.6820  -76.4160   -0.8330 O         1 <0>         0.0000
  35197 WAT       -32.6820  -76.4160   -0.5830 O         1 <0>         0.0000
  35198 WAT       -32.6820  -76.4160   -0.3330 O         1 <0>         0.0000
  35199 WAT       -32.6820  -76.4160   -0.0830 O         1 <0>         0.0000
  35200 WAT       -32.6820  -76.1660   -9.8330 O         1 <0>         0.0000
  35201 WAT       -32.6820  -76.1660   -9.5830 O         1 <0>         0.0000
  35202 WAT       -32.6820  -76.1660   -9.3330 O         1 <0>         0.0000
  35203 WAT       -32.6820  -76.1660   -9.0830 O         1 <0>         0.0000
  35204 WAT       -32.6820  -76.1660   -8.8330 O         1 <0>         0.0000
  35205 WAT       -32.6820  -76.1660   -8.5830 O         1 <0>         0.0000
  35206 WAT       -32.6820  -76.1660   -8.3330 O         1 <0>         0.0000
  35207 WAT       -32.6820  -76.1660   -8.0830 O         1 <0>         0.0000
  35208 WAT       -32.6820  -76.1660   -7.8330 O         1 <0>         0.0000
  35209 WAT       -32.6820  -76.1660   -7.5830 O         1 <0>         0.0000
  35210 WAT       -32.6820  -76.1660   -7.3330 O         1 <0>         0.0000
  35211 WAT       -32.6820  -76.1660   -7.0830 O         1 <0>         0.0000
  35212 WAT       -32.6820  -76.1660   -6.8330 O         1 <0>         0.0000
  35213 WAT       -32.6820  -76.1660   -6.5830 O         1 <0>         0.0000
  35214 WAT       -32.6820  -76.1660   -6.3330 O         1 <0>         0.0000
  35215 WAT       -32.6820  -76.1660   -6.0830 O         1 <0>         0.0000
  35216 WAT       -32.6820  -76.1660   -5.8330 O         1 <0>         0.0001
  35217 WAT       -32.6820  -76.1660   -5.5830 O         1 <0>         0.0001
  35218 WAT       -32.6820  -76.1660   -5.3330 O         1 <0>         0.0001
  35219 WAT       -32.6820  -76.1660   -5.0830 O         1 <0>         0.0000
  35220 WAT       -32.6820  -76.1660   -4.8330 O         1 <0>         0.0000
  35221 WAT       -32.6820  -76.1660   -4.5830 O         1 <0>         0.0000
  35222 WAT       -32.6820  -76.1660   -4.3330 O         1 <0>         0.0000
  35223 WAT       -32.6820  -76.1660   -4.0830 O         1 <0>         0.0000
  35224 WAT       -32.6820  -76.1660   -3.8330 O         1 <0>         0.0000
  35225 WAT       -32.6820  -76.1660   -3.5830 O         1 <0>         0.0000
  35226 WAT       -32.6820  -76.1660   -3.3330 O         1 <0>         0.0000
  35227 WAT       -32.6820  -76.1660   -3.0830 O         1 <0>         0.0000
  35228 WAT       -32.6820  -76.1660   -2.8330 O         1 <0>         0.0000
  35229 WAT       -32.6820  -76.1660   -2.5830 O         1 <0>         0.0000
  35230 WAT       -32.6820  -76.1660   -2.3330 O         1 <0>         0.0000
  35231 WAT       -32.6820  -76.1660   -2.0830 O         1 <0>         0.0000
  35232 WAT       -32.6820  -76.1660   -1.8330 O         1 <0>         0.0000
  35233 WAT       -32.6820  -76.1660   -1.5830 O         1 <0>         0.0000
  35234 WAT       -32.6820  -76.1660   -1.3330 O         1 <0>         0.0000
  35235 WAT       -32.6820  -76.1660   -1.0830 O         1 <0>         0.0000
  35236 WAT       -32.6820  -76.1660   -0.8330 O         1 <0>         0.0000
  35237 WAT       -32.6820  -76.1660   -0.5830 O         1 <0>         0.0000
  35238 WAT       -32.6820  -76.1660   -0.3330 O         1 <0>         0.0000
  35239 WAT       -32.6820  -76.1660   -0.0830 O         1 <0>         0.0000
  35240 WAT       -32.6820  -75.9160   -9.8330 O         1 <0>         0.0000
  35241 WAT       -32.6820  -75.9160   -9.5830 O         1 <0>         0.0000
  35242 WAT       -32.6820  -75.9160   -9.3330 O         1 <0>         0.0000
  35243 WAT       -32.6820  -75.9160   -9.0830 O         1 <0>         0.0000
  35244 WAT       -32.6820  -75.9160   -8.8330 O         1 <0>         0.0000
  35245 WAT       -32.6820  -75.9160   -8.5830 O         1 <0>         0.0000
  35246 WAT       -32.6820  -75.9160   -8.3330 O         1 <0>         0.0000
  35247 WAT       -32.6820  -75.9160   -8.0830 O         1 <0>         0.0000
  35248 WAT       -32.6820  -75.9160   -7.8330 O         1 <0>         0.0000
  35249 WAT       -32.6820  -75.9160   -7.5830 O         1 <0>         0.0000
  35250 WAT       -32.6820  -75.9160   -7.3330 O         1 <0>         0.0000
  35251 WAT       -32.6820  -75.9160   -7.0830 O         1 <0>         0.0000
  35252 WAT       -32.6820  -75.9160   -6.8330 O         1 <0>         0.0000
  35253 WAT       -32.6820  -75.9160   -6.5830 O         1 <0>         0.0000
  35254 WAT       -32.6820  -75.9160   -6.3330 O         1 <0>         0.0001
  35255 WAT       -32.6820  -75.9160   -6.0830 O         1 <0>         0.0003
  35256 WAT       -32.6820  -75.9160   -5.8330 O         1 <0>         0.0006
  35257 WAT       -32.6820  -75.9160   -5.5830 O         1 <0>         0.0008
  35258 WAT       -32.6820  -75.9160   -5.3330 O         1 <0>         0.0007
  35259 WAT       -32.6820  -75.9160   -5.0830 O         1 <0>         0.0004
  35260 WAT       -32.6820  -75.9160   -4.8330 O         1 <0>         0.0001
  35261 WAT       -32.6820  -75.9160   -4.5830 O         1 <0>         0.0000
  35262 WAT       -32.6820  -75.9160   -4.3330 O         1 <0>         0.0000
  35263 WAT       -32.6820  -75.9160   -4.0830 O         1 <0>         0.0000
  35264 WAT       -32.6820  -75.9160   -3.8330 O         1 <0>         0.0000
  35265 WAT       -32.6820  -75.9160   -3.5830 O         1 <0>         0.0000
  35266 WAT       -32.6820  -75.9160   -3.3330 O         1 <0>         0.0000
  35267 WAT       -32.6820  -75.9160   -3.0830 O         1 <0>         0.0000
  35268 WAT       -32.6820  -75.9160   -2.8330 O         1 <0>         0.0000
  35269 WAT       -32.6820  -75.9160   -2.5830 O         1 <0>         0.0000
  35270 WAT       -32.6820  -75.9160   -2.3330 O         1 <0>         0.0000
  35271 WAT       -32.6820  -75.9160   -2.0830 O         1 <0>         0.0000
  35272 WAT       -32.6820  -75.9160   -1.8330 O         1 <0>         0.0000
  35273 WAT       -32.6820  -75.9160   -1.5830 O         1 <0>         0.0000
  35274 WAT       -32.6820  -75.9160   -1.3330 O         1 <0>         0.0000
  35275 WAT       -32.6820  -75.9160   -1.0830 O         1 <0>         0.0000
  35276 WAT       -32.6820  -75.9160   -0.8330 O         1 <0>         0.0000
  35277 WAT       -32.6820  -75.9160   -0.5830 O         1 <0>         0.0000
  35278 WAT       -32.6820  -75.9160   -0.3330 O         1 <0>         0.0000
  35279 WAT       -32.6820  -75.9160   -0.0830 O         1 <0>         0.0000
  35280 WAT       -32.6820  -75.6660   -9.8330 O         1 <0>         0.0000
  35281 WAT       -32.6820  -75.6660   -9.5830 O         1 <0>         0.0000
  35282 WAT       -32.6820  -75.6660   -9.3330 O         1 <0>         0.0000
  35283 WAT       -32.6820  -75.6660   -9.0830 O         1 <0>         0.0000
  35284 WAT       -32.6820  -75.6660   -8.8330 O         1 <0>         0.0000
  35285 WAT       -32.6820  -75.6660   -8.5830 O         1 <0>         0.0000
  35286 WAT       -32.6820  -75.6660   -8.3330 O         1 <0>         0.0000
  35287 WAT       -32.6820  -75.6660   -8.0830 O         1 <0>         0.0000
  35288 WAT       -32.6820  -75.6660   -7.8330 O         1 <0>         0.0000
  35289 WAT       -32.6820  -75.6660   -7.5830 O         1 <0>         0.0000
  35290 WAT       -32.6820  -75.6660   -7.3330 O         1 <0>         0.0000
  35291 WAT       -32.6820  -75.6660   -7.0830 O         1 <0>         0.0000
  35292 WAT       -32.6820  -75.6660   -6.8330 O         1 <0>         0.0000
  35293 WAT       -32.6820  -75.6660   -6.5830 O         1 <0>         0.0001
  35294 WAT       -32.6820  -75.6660   -6.3330 O         1 <0>         0.0004
  35295 WAT       -32.6820  -75.6660   -6.0830 O         1 <0>         0.0014
  35296 WAT       -32.6820  -75.6660   -5.8330 O         1 <0>         0.0029
  35297 WAT       -32.6820  -75.6660   -5.5830 O         1 <0>         0.0040
  35298 WAT       -32.6820  -75.6660   -5.3330 O         1 <0>         0.0036
  35299 WAT       -32.6820  -75.6660   -5.0830 O         1 <0>         0.0022
  35300 WAT       -32.6820  -75.6660   -4.8330 O         1 <0>         0.0009
  35301 WAT       -32.6820  -75.6660   -4.5830 O         1 <0>         0.0002
  35302 WAT       -32.6820  -75.6660   -4.3330 O         1 <0>         0.0001
  35303 WAT       -32.6820  -75.6660   -4.0830 O         1 <0>         0.0000
  35304 WAT       -32.6820  -75.6660   -3.8330 O         1 <0>         0.0000
  35305 WAT       -32.6820  -75.6660   -3.5830 O         1 <0>         0.0000
  35306 WAT       -32.6820  -75.6660   -3.3330 O         1 <0>         0.0000
  35307 WAT       -32.6820  -75.6660   -3.0830 O         1 <0>         0.0000
  35308 WAT       -32.6820  -75.6660   -2.8330 O         1 <0>         0.0000
  35309 WAT       -32.6820  -75.6660   -2.5830 O         1 <0>         0.0000
  35310 WAT       -32.6820  -75.6660   -2.3330 O         1 <0>         0.0000
  35311 WAT       -32.6820  -75.6660   -2.0830 O         1 <0>         0.0000
  35312 WAT       -32.6820  -75.6660   -1.8330 O         1 <0>         0.0000
  35313 WAT       -32.6820  -75.6660   -1.5830 O         1 <0>         0.0000
  35314 WAT       -32.6820  -75.6660   -1.3330 O         1 <0>         0.0000
  35315 WAT       -32.6820  -75.6660   -1.0830 O         1 <0>         0.0000
  35316 WAT       -32.6820  -75.6660   -0.8330 O         1 <0>         0.0000
  35317 WAT       -32.6820  -75.6660   -0.5830 O         1 <0>         0.0000
  35318 WAT       -32.6820  -75.6660   -0.3330 O         1 <0>         0.0000
  35319 WAT       -32.6820  -75.6660   -0.0830 O         1 <0>         0.0000
  35320 WAT       -32.6820  -75.4160   -9.8330 O         1 <0>         0.0000
  35321 WAT       -32.6820  -75.4160   -9.5830 O         1 <0>         0.0000
  35322 WAT       -32.6820  -75.4160   -9.3330 O         1 <0>         0.0000
  35323 WAT       -32.6820  -75.4160   -9.0830 O         1 <0>         0.0000
  35324 WAT       -32.6820  -75.4160   -8.8330 O         1 <0>         0.0000
  35325 WAT       -32.6820  -75.4160   -8.5830 O         1 <0>         0.0000
  35326 WAT       -32.6820  -75.4160   -8.3330 O         1 <0>         0.0000
  35327 WAT       -32.6820  -75.4160   -8.0830 O         1 <0>         0.0000
  35328 WAT       -32.6820  -75.4160   -7.8330 O         1 <0>         0.0000
  35329 WAT       -32.6820  -75.4160   -7.5830 O         1 <0>         0.0000
  35330 WAT       -32.6820  -75.4160   -7.3330 O         1 <0>         0.0000
  35331 WAT       -32.6820  -75.4160   -7.0830 O         1 <0>         0.0000
  35332 WAT       -32.6820  -75.4160   -6.8330 O         1 <0>         0.0000
  35333 WAT       -32.6820  -75.4160   -6.5830 O         1 <0>         0.0002
  35334 WAT       -32.6820  -75.4160   -6.3330 O         1 <0>         0.0015
  35335 WAT       -32.6820  -75.4160   -6.0830 O         1 <0>         0.0046
  35336 WAT       -32.6820  -75.4160   -5.8330 O         1 <0>         0.0096
  35337 WAT       -32.6820  -75.4160   -5.5830 O         1 <0>         0.0135
  35338 WAT       -32.6820  -75.4160   -5.3330 O         1 <0>         0.0129
  35339 WAT       -32.6820  -75.4160   -5.0830 O         1 <0>         0.0087
  35340 WAT       -32.6820  -75.4160   -4.8330 O         1 <0>         0.0042
  35341 WAT       -32.6820  -75.4160   -4.5830 O         1 <0>         0.0015
  35342 WAT       -32.6820  -75.4160   -4.3330 O         1 <0>         0.0005
  35343 WAT       -32.6820  -75.4160   -4.0830 O         1 <0>         0.0002
  35344 WAT       -32.6820  -75.4160   -3.8330 O         1 <0>         0.0001
  35345 WAT       -32.6820  -75.4160   -3.5830 O         1 <0>         0.0001
  35346 WAT       -32.6820  -75.4160   -3.3330 O         1 <0>         0.0000
  35347 WAT       -32.6820  -75.4160   -3.0830 O         1 <0>         0.0000
  35348 WAT       -32.6820  -75.4160   -2.8330 O         1 <0>         0.0000
  35349 WAT       -32.6820  -75.4160   -2.5830 O         1 <0>         0.0000
  35350 WAT       -32.6820  -75.4160   -2.3330 O         1 <0>         0.0000
  35351 WAT       -32.6820  -75.4160   -2.0830 O         1 <0>         0.0000
  35352 WAT       -32.6820  -75.4160   -1.8330 O         1 <0>         0.0000
  35353 WAT       -32.6820  -75.4160   -1.5830 O         1 <0>         0.0000
  35354 WAT       -32.6820  -75.4160   -1.3330 O         1 <0>         0.0000
  35355 WAT       -32.6820  -75.4160   -1.0830 O         1 <0>         0.0000
  35356 WAT       -32.6820  -75.4160   -0.8330 O         1 <0>         0.0000
  35357 WAT       -32.6820  -75.4160   -0.5830 O         1 <0>         0.0000
  35358 WAT       -32.6820  -75.4160   -0.3330 O         1 <0>         0.0000
  35359 WAT       -32.6820  -75.4160   -0.0830 O         1 <0>         0.0000
  35360 WAT       -32.6820  -75.1660   -9.8330 O         1 <0>         0.0000
  35361 WAT       -32.6820  -75.1660   -9.5830 O         1 <0>         0.0000
  35362 WAT       -32.6820  -75.1660   -9.3330 O         1 <0>         0.0000
  35363 WAT       -32.6820  -75.1660   -9.0830 O         1 <0>         0.0000
  35364 WAT       -32.6820  -75.1660   -8.8330 O         1 <0>         0.0000
  35365 WAT       -32.6820  -75.1660   -8.5830 O         1 <0>         0.0000
  35366 WAT       -32.6820  -75.1660   -8.3330 O         1 <0>         0.0000
  35367 WAT       -32.6820  -75.1660   -8.0830 O         1 <0>         0.0000
  35368 WAT       -32.6820  -75.1660   -7.8330 O         1 <0>         0.0000
  35369 WAT       -32.6820  -75.1660   -7.5830 O         1 <0>         0.0000
  35370 WAT       -32.6820  -75.1660   -7.3330 O         1 <0>         0.0000
  35371 WAT       -32.6820  -75.1660   -7.0830 O         1 <0>         0.0000
  35372 WAT       -32.6820  -75.1660   -6.8330 O         1 <0>         0.0001
  35373 WAT       -32.6820  -75.1660   -6.5830 O         1 <0>         0.0009
  35374 WAT       -32.6820  -75.1660   -6.3330 O         1 <0>         0.0041
  35375 WAT       -32.6820  -75.1660   -6.0830 O         1 <0>         0.0121
  35376 WAT       -32.6820  -75.1660   -5.8330 O         1 <0>         0.0241
  35377 WAT       -32.6820  -75.1660   -5.5830 O         1 <0>         0.0337
  35378 WAT       -32.6820  -75.1660   -5.3330 O         1 <0>         0.0334
  35379 WAT       -32.6820  -75.1660   -5.0830 O         1 <0>         0.0238
  35380 WAT       -32.6820  -75.1660   -4.8330 O         1 <0>         0.0127
  35381 WAT       -32.6820  -75.1660   -4.5830 O         1 <0>         0.0054
  35382 WAT       -32.6820  -75.1660   -4.3330 O         1 <0>         0.0021
  35383 WAT       -32.6820  -75.1660   -4.0830 O         1 <0>         0.0009
  35384 WAT       -32.6820  -75.1660   -3.8330 O         1 <0>         0.0004
  35385 WAT       -32.6820  -75.1660   -3.5830 O         1 <0>         0.0003
  35386 WAT       -32.6820  -75.1660   -3.3330 O         1 <0>         0.0002
  35387 WAT       -32.6820  -75.1660   -3.0830 O         1 <0>         0.0003
  35388 WAT       -32.6820  -75.1660   -2.8330 O         1 <0>         0.0003
  35389 WAT       -32.6820  -75.1660   -2.5830 O         1 <0>         0.0002
  35390 WAT       -32.6820  -75.1660   -2.3330 O         1 <0>         0.0001
  35391 WAT       -32.6820  -75.1660   -2.0830 O         1 <0>         0.0001
  35392 WAT       -32.6820  -75.1660   -1.8330 O         1 <0>         0.0000
  35393 WAT       -32.6820  -75.1660   -1.5830 O         1 <0>         0.0000
  35394 WAT       -32.6820  -75.1660   -1.3330 O         1 <0>         0.0000
  35395 WAT       -32.6820  -75.1660   -1.0830 O         1 <0>         0.0000
  35396 WAT       -32.6820  -75.1660   -0.8330 O         1 <0>         0.0000
  35397 WAT       -32.6820  -75.1660   -0.5830 O         1 <0>         0.0000
  35398 WAT       -32.6820  -75.1660   -0.3330 O         1 <0>         0.0000
  35399 WAT       -32.6820  -75.1660   -0.0830 O         1 <0>         0.0000
  35400 WAT       -32.6820  -74.9160   -9.8330 O         1 <0>         0.0000
  35401 WAT       -32.6820  -74.9160   -9.5830 O         1 <0>         0.0000
  35402 WAT       -32.6820  -74.9160   -9.3330 O         1 <0>         0.0000
  35403 WAT       -32.6820  -74.9160   -9.0830 O         1 <0>         0.0000
  35404 WAT       -32.6820  -74.9160   -8.8330 O         1 <0>         0.0000
  35405 WAT       -32.6820  -74.9160   -8.5830 O         1 <0>         0.0000
  35406 WAT       -32.6820  -74.9160   -8.3330 O         1 <0>         0.0000
  35407 WAT       -32.6820  -74.9160   -8.0830 O         1 <0>         0.0000
  35408 WAT       -32.6820  -74.9160   -7.8330 O         1 <0>         0.0000
  35409 WAT       -32.6820  -74.9160   -7.5830 O         1 <0>         0.0000
  35410 WAT       -32.6820  -74.9160   -7.3330 O         1 <0>         0.0000
  35411 WAT       -32.6820  -74.9160   -7.0830 O         1 <0>         0.0000
  35412 WAT       -32.6820  -74.9160   -6.8330 O         1 <0>         0.0003
  35413 WAT       -32.6820  -74.9160   -6.5830 O         1 <0>         0.0023
  35414 WAT       -32.6820  -74.9160   -6.3330 O         1 <0>         0.0092
  35415 WAT       -32.6820  -74.9160   -6.0830 O         1 <0>         0.0246
  35416 WAT       -32.6820  -74.9160   -5.8330 O         1 <0>         0.0467
  35417 WAT       -32.6820  -74.9160   -5.5830 O         1 <0>         0.0642
  35418 WAT       -32.6820  -74.9160   -5.3330 O         1 <0>         0.0643
  35419 WAT       -32.6820  -74.9160   -5.0830 O         1 <0>         0.0477
  35420 WAT       -32.6820  -74.9160   -4.8330 O         1 <0>         0.0272
  35421 WAT       -32.6820  -74.9160   -4.5830 O         1 <0>         0.0126
  35422 WAT       -32.6820  -74.9160   -4.3330 O         1 <0>         0.0051
  35423 WAT       -32.6820  -74.9160   -4.0830 O         1 <0>         0.0022
  35424 WAT       -32.6820  -74.9160   -3.8330 O         1 <0>         0.0012
  35425 WAT       -32.6820  -74.9160   -3.5830 O         1 <0>         0.0010
  35426 WAT       -32.6820  -74.9160   -3.3330 O         1 <0>         0.0013
  35427 WAT       -32.6820  -74.9160   -3.0830 O         1 <0>         0.0021
  35428 WAT       -32.6820  -74.9160   -2.8330 O         1 <0>         0.0025
  35429 WAT       -32.6820  -74.9160   -2.5830 O         1 <0>         0.0022
  35430 WAT       -32.6820  -74.9160   -2.3330 O         1 <0>         0.0014
  35431 WAT       -32.6820  -74.9160   -2.0830 O         1 <0>         0.0005
  35432 WAT       -32.6820  -74.9160   -1.8330 O         1 <0>         0.0001
  35433 WAT       -32.6820  -74.9160   -1.5830 O         1 <0>         0.0000
  35434 WAT       -32.6820  -74.9160   -1.3330 O         1 <0>         0.0000
  35435 WAT       -32.6820  -74.9160   -1.0830 O         1 <0>         0.0000
  35436 WAT       -32.6820  -74.9160   -0.8330 O         1 <0>         0.0000
  35437 WAT       -32.6820  -74.9160   -0.5830 O         1 <0>         0.0000
  35438 WAT       -32.6820  -74.9160   -0.3330 O         1 <0>         0.0000
  35439 WAT       -32.6820  -74.9160   -0.0830 O         1 <0>         0.0000
  35440 WAT       -32.6820  -74.6660   -9.8330 O         1 <0>         0.0000
  35441 WAT       -32.6820  -74.6660   -9.5830 O         1 <0>         0.0000
  35442 WAT       -32.6820  -74.6660   -9.3330 O         1 <0>         0.0000
  35443 WAT       -32.6820  -74.6660   -9.0830 O         1 <0>         0.0000
  35444 WAT       -32.6820  -74.6660   -8.8330 O         1 <0>         0.0000
  35445 WAT       -32.6820  -74.6660   -8.5830 O         1 <0>         0.0000
  35446 WAT       -32.6820  -74.6660   -8.3330 O         1 <0>         0.0000
  35447 WAT       -32.6820  -74.6660   -8.0830 O         1 <0>         0.0000
  35448 WAT       -32.6820  -74.6660   -7.8330 O         1 <0>         0.0000
  35449 WAT       -32.6820  -74.6660   -7.5830 O         1 <0>         0.0000
  35450 WAT       -32.6820  -74.6660   -7.3330 O         1 <0>         0.0000
  35451 WAT       -32.6820  -74.6660   -7.0830 O         1 <0>         0.0001
  35452 WAT       -32.6820  -74.6660   -6.8330 O         1 <0>         0.0010
  35453 WAT       -32.6820  -74.6660   -6.5830 O         1 <0>         0.0050
  35454 WAT       -32.6820  -74.6660   -6.3330 O         1 <0>         0.0168
  35455 WAT       -32.6820  -74.6660   -6.0830 O         1 <0>         0.0403
  35456 WAT       -32.6820  -74.6660   -5.8330 O         1 <0>         0.0713
  35457 WAT       -32.6820  -74.6660   -5.5830 O         1 <0>         0.0946
  35458 WAT       -32.6820  -74.6660   -5.3330 O         1 <0>         0.0943
  35459 WAT       -32.6820  -74.6660   -5.0830 O         1 <0>         0.0714
  35460 WAT       -32.6820  -74.6660   -4.8330 O         1 <0>         0.0423
  35461 WAT       -32.6820  -74.6660   -4.5830 O         1 <0>         0.0205
  35462 WAT       -32.6820  -74.6660   -4.3330 O         1 <0>         0.0086
  35463 WAT       -32.6820  -74.6660   -4.0830 O         1 <0>         0.0038
  35464 WAT       -32.6820  -74.6660   -3.8330 O         1 <0>         0.0025
  35465 WAT       -32.6820  -74.6660   -3.5830 O         1 <0>         0.0038
  35466 WAT       -32.6820  -74.6660   -3.3330 O         1 <0>         0.0077
  35467 WAT       -32.6820  -74.6660   -3.0830 O         1 <0>         0.0125
  35468 WAT       -32.6820  -74.6660   -2.8330 O         1 <0>         0.0146
  35469 WAT       -32.6820  -74.6660   -2.5830 O         1 <0>         0.0121
  35470 WAT       -32.6820  -74.6660   -2.3330 O         1 <0>         0.0071
  35471 WAT       -32.6820  -74.6660   -2.0830 O         1 <0>         0.0028
  35472 WAT       -32.6820  -74.6660   -1.8330 O         1 <0>         0.0007
  35473 WAT       -32.6820  -74.6660   -1.5830 O         1 <0>         0.0001
  35474 WAT       -32.6820  -74.6660   -1.3330 O         1 <0>         0.0000
  35475 WAT       -32.6820  -74.6660   -1.0830 O         1 <0>         0.0000
  35476 WAT       -32.6820  -74.6660   -0.8330 O         1 <0>         0.0000
  35477 WAT       -32.6820  -74.6660   -0.5830 O         1 <0>         0.0000
  35478 WAT       -32.6820  -74.6660   -0.3330 O         1 <0>         0.0000
  35479 WAT       -32.6820  -74.6660   -0.0830 O         1 <0>         0.0000
  35480 WAT       -32.6820  -74.4160   -9.8330 O         1 <0>         0.0000
  35481 WAT       -32.6820  -74.4160   -9.5830 O         1 <0>         0.0000
  35482 WAT       -32.6820  -74.4160   -9.3330 O         1 <0>         0.0000
  35483 WAT       -32.6820  -74.4160   -9.0830 O         1 <0>         0.0000
  35484 WAT       -32.6820  -74.4160   -8.8330 O         1 <0>         0.0000
  35485 WAT       -32.6820  -74.4160   -8.5830 O         1 <0>         0.0000
  35486 WAT       -32.6820  -74.4160   -8.3330 O         1 <0>         0.0000
  35487 WAT       -32.6820  -74.4160   -8.0830 O         1 <0>         0.0000
  35488 WAT       -32.6820  -74.4160   -7.8330 O         1 <0>         0.0000
  35489 WAT       -32.6820  -74.4160   -7.5830 O         1 <0>         0.0000
  35490 WAT       -32.6820  -74.4160   -7.3330 O         1 <0>         0.0001
  35491 WAT       -32.6820  -74.4160   -7.0830 O         1 <0>         0.0005
  35492 WAT       -32.6820  -74.4160   -6.8330 O         1 <0>         0.0027
  35493 WAT       -32.6820  -74.4160   -6.5830 O         1 <0>         0.0097
  35494 WAT       -32.6820  -74.4160   -6.3330 O         1 <0>         0.0263
  35495 WAT       -32.6820  -74.4160   -6.0830 O         1 <0>         0.0549
  35496 WAT       -32.6820  -74.4160   -5.8330 O         1 <0>         0.0887
  35497 WAT       -32.6820  -74.4160   -5.5830 O         1 <0>         0.1112
  35498 WAT       -32.6820  -74.4160   -5.3330 O         1 <0>         0.1079
  35499 WAT       -32.6820  -74.4160   -5.0830 O         1 <0>         0.0816
  35500 WAT       -32.6820  -74.4160   -4.8330 O         1 <0>         0.0491
  35501 WAT       -32.6820  -74.4160   -4.5830 O         1 <0>         0.0243
  35502 WAT       -32.6820  -74.4160   -4.3330 O         1 <0>         0.0106
  35503 WAT       -32.6820  -74.4160   -4.0830 O         1 <0>         0.0053
  35504 WAT       -32.6820  -74.4160   -3.8330 O         1 <0>         0.0064
  35505 WAT       -32.6820  -74.4160   -3.5830 O         1 <0>         0.0154
  35506 WAT       -32.6820  -74.4160   -3.3330 O         1 <0>         0.0325
  35507 WAT       -32.6820  -74.4160   -3.0830 O         1 <0>         0.0495
  35508 WAT       -32.6820  -74.4160   -2.8330 O         1 <0>         0.0535
  35509 WAT       -32.6820  -74.4160   -2.5830 O         1 <0>         0.0411
  35510 WAT       -32.6820  -74.4160   -2.3330 O         1 <0>         0.0223
  35511 WAT       -32.6820  -74.4160   -2.0830 O         1 <0>         0.0084
  35512 WAT       -32.6820  -74.4160   -1.8330 O         1 <0>         0.0020
  35513 WAT       -32.6820  -74.4160   -1.5830 O         1 <0>         0.0003
  35514 WAT       -32.6820  -74.4160   -1.3330 O         1 <0>         0.0000
  35515 WAT       -32.6820  -74.4160   -1.0830 O         1 <0>         0.0000
  35516 WAT       -32.6820  -74.4160   -0.8330 O         1 <0>         0.0000
  35517 WAT       -32.6820  -74.4160   -0.5830 O         1 <0>         0.0000
  35518 WAT       -32.6820  -74.4160   -0.3330 O         1 <0>         0.0000
  35519 WAT       -32.6820  -74.4160   -0.0830 O         1 <0>         0.0000
  35520 WAT       -32.6820  -74.1660   -9.8330 O         1 <0>         0.0000
  35521 WAT       -32.6820  -74.1660   -9.5830 O         1 <0>         0.0000
  35522 WAT       -32.6820  -74.1660   -9.3330 O         1 <0>         0.0000
  35523 WAT       -32.6820  -74.1660   -9.0830 O         1 <0>         0.0000
  35524 WAT       -32.6820  -74.1660   -8.8330 O         1 <0>         0.0000
  35525 WAT       -32.6820  -74.1660   -8.5830 O         1 <0>         0.0000
  35526 WAT       -32.6820  -74.1660   -8.3330 O         1 <0>         0.0000
  35527 WAT       -32.6820  -74.1660   -8.0830 O         1 <0>         0.0000
  35528 WAT       -32.6820  -74.1660   -7.8330 O         1 <0>         0.0000
  35529 WAT       -32.6820  -74.1660   -7.5830 O         1 <0>         0.0000
  35530 WAT       -32.6820  -74.1660   -7.3330 O         1 <0>         0.0003
  35531 WAT       -32.6820  -74.1660   -7.0830 O         1 <0>         0.0017
  35532 WAT       -32.6820  -74.1660   -6.8330 O         1 <0>         0.0061
  35533 WAT       -32.6820  -74.1660   -6.5830 O         1 <0>         0.0165
  35534 WAT       -32.6820  -74.1660   -6.3330 O         1 <0>         0.0360
  35535 WAT       -32.6820  -74.1660   -6.0830 O         1 <0>         0.0642
  35536 WAT       -32.6820  -74.1660   -5.8330 O         1 <0>         0.0928
  35537 WAT       -32.6820  -74.1660   -5.5830 O         1 <0>         0.1075
  35538 WAT       -32.6820  -74.1660   -5.3330 O         1 <0>         0.0995
  35539 WAT       -32.6820  -74.1660   -5.0830 O         1 <0>         0.0734
  35540 WAT       -32.6820  -74.1660   -4.8330 O         1 <0>         0.0438
  35541 WAT       -32.6820  -74.1660   -4.5830 O         1 <0>         0.0217
  35542 WAT       -32.6820  -74.1660   -4.3330 O         1 <0>         0.0098
  35543 WAT       -32.6820  -74.1660   -4.0830 O         1 <0>         0.0071
  35544 WAT       -32.6820  -74.1660   -3.8330 O         1 <0>         0.0166
  35545 WAT       -32.6820  -74.1660   -3.5830 O         1 <0>         0.0460
  35546 WAT       -32.6820  -74.1660   -3.3330 O         1 <0>         0.0935
  35547 WAT       -32.6820  -74.1660   -3.0830 O         1 <0>         0.1345
  35548 WAT       -32.6820  -74.1660   -2.8330 O         1 <0>         0.1360
  35549 WAT       -32.6820  -74.1660   -2.5830 O         1 <0>         0.0968
  35550 WAT       -32.6820  -74.1660   -2.3330 O         1 <0>         0.0485
  35551 WAT       -32.6820  -74.1660   -2.0830 O         1 <0>         0.0169
  35552 WAT       -32.6820  -74.1660   -1.8330 O         1 <0>         0.0038
  35553 WAT       -32.6820  -74.1660   -1.5830 O         1 <0>         0.0005
  35554 WAT       -32.6820  -74.1660   -1.3330 O         1 <0>         0.0000
  35555 WAT       -32.6820  -74.1660   -1.0830 O         1 <0>         0.0000
  35556 WAT       -32.6820  -74.1660   -0.8330 O         1 <0>         0.0000
  35557 WAT       -32.6820  -74.1660   -0.5830 O         1 <0>         0.0000
  35558 WAT       -32.6820  -74.1660   -0.3330 O         1 <0>         0.0000
  35559 WAT       -32.6820  -74.1660   -0.0830 O         1 <0>         0.0000
  35560 WAT       -32.6820  -73.9160   -9.8330 O         1 <0>         0.0000
  35561 WAT       -32.6820  -73.9160   -9.5830 O         1 <0>         0.0000
  35562 WAT       -32.6820  -73.9160   -9.3330 O         1 <0>         0.0000
  35563 WAT       -32.6820  -73.9160   -9.0830 O         1 <0>         0.0000
  35564 WAT       -32.6820  -73.9160   -8.8330 O         1 <0>         0.0000
  35565 WAT       -32.6820  -73.9160   -8.5830 O         1 <0>         0.0000
  35566 WAT       -32.6820  -73.9160   -8.3330 O         1 <0>         0.0000
  35567 WAT       -32.6820  -73.9160   -8.0830 O         1 <0>         0.0000
  35568 WAT       -32.6820  -73.9160   -7.8330 O         1 <0>         0.0000
  35569 WAT       -32.6820  -73.9160   -7.5830 O         1 <0>         0.0001
  35570 WAT       -32.6820  -73.9160   -7.3330 O         1 <0>         0.0008
  35571 WAT       -32.6820  -73.9160   -7.0830 O         1 <0>         0.0036
  35572 WAT       -32.6820  -73.9160   -6.8330 O         1 <0>         0.0108
  35573 WAT       -32.6820  -73.9160   -6.5830 O         1 <0>         0.0240
  35574 WAT       -32.6820  -73.9160   -6.3330 O         1 <0>         0.0432
  35575 WAT       -32.6820  -73.9160   -6.0830 O         1 <0>         0.0652
  35576 WAT       -32.6820  -73.9160   -5.8330 O         1 <0>         0.0829
  35577 WAT       -32.6820  -73.9160   -5.5830 O         1 <0>         0.0877
  35578 WAT       -32.6820  -73.9160   -5.3330 O         1 <0>         0.0761
  35579 WAT       -32.6820  -73.9160   -5.0830 O         1 <0>         0.0537
  35580 WAT       -32.6820  -73.9160   -4.8330 O         1 <0>         0.0310
  35581 WAT       -32.6820  -73.9160   -4.5830 O         1 <0>         0.0149
  35582 WAT       -32.6820  -73.9160   -4.3330 O         1 <0>         0.0073
  35583 WAT       -32.6820  -73.9160   -4.0830 O         1 <0>         0.0101
  35584 WAT       -32.6820  -73.9160   -3.8330 O         1 <0>         0.0345
  35585 WAT       -32.6820  -73.9160   -3.5830 O         1 <0>         0.0961
  35586 WAT       -32.6820  -73.9160   -3.3330 O         1 <0>         0.1891
  35587 WAT       -32.6820  -73.9160   -3.0830 O         1 <0>         0.2593
  35588 WAT       -32.6820  -73.9160   -2.8330 O         1 <0>         0.2463
  35589 WAT       -32.6820  -73.9160   -2.5830 O         1 <0>         0.1623
  35590 WAT       -32.6820  -73.9160   -2.3330 O         1 <0>         0.0746
  35591 WAT       -32.6820  -73.9160   -2.0830 O         1 <0>         0.0235
  35592 WAT       -32.6820  -73.9160   -1.8330 O         1 <0>         0.0048
  35593 WAT       -32.6820  -73.9160   -1.5830 O         1 <0>         0.0005
  35594 WAT       -32.6820  -73.9160   -1.3330 O         1 <0>         0.0000
  35595 WAT       -32.6820  -73.9160   -1.0830 O         1 <0>         0.0000
  35596 WAT       -32.6820  -73.9160   -0.8330 O         1 <0>         0.0000
  35597 WAT       -32.6820  -73.9160   -0.5830 O         1 <0>         0.0000
  35598 WAT       -32.6820  -73.9160   -0.3330 O         1 <0>         0.0000
  35599 WAT       -32.6820  -73.9160   -0.0830 O         1 <0>         0.0000
  35600 WAT       -32.6820  -73.6660   -9.8330 O         1 <0>         0.0000
  35601 WAT       -32.6820  -73.6660   -9.5830 O         1 <0>         0.0000
  35602 WAT       -32.6820  -73.6660   -9.3330 O         1 <0>         0.0000
  35603 WAT       -32.6820  -73.6660   -9.0830 O         1 <0>         0.0000
  35604 WAT       -32.6820  -73.6660   -8.8330 O         1 <0>         0.0000
  35605 WAT       -32.6820  -73.6660   -8.5830 O         1 <0>         0.0000
  35606 WAT       -32.6820  -73.6660   -8.3330 O         1 <0>         0.0000
  35607 WAT       -32.6820  -73.6660   -8.0830 O         1 <0>         0.0000
  35608 WAT       -32.6820  -73.6660   -7.8330 O         1 <0>         0.0000
  35609 WAT       -32.6820  -73.6660   -7.5830 O         1 <0>         0.0002
  35610 WAT       -32.6820  -73.6660   -7.3330 O         1 <0>         0.0015
  35611 WAT       -32.6820  -73.6660   -7.0830 O         1 <0>         0.0058
  35612 WAT       -32.6820  -73.6660   -6.8330 O         1 <0>         0.0149
  35613 WAT       -32.6820  -73.6660   -6.5830 O         1 <0>         0.0286
  35614 WAT       -32.6820  -73.6660   -6.3330 O         1 <0>         0.0440
  35615 WAT       -32.6820  -73.6660   -6.0830 O         1 <0>         0.0570
  35616 WAT       -32.6820  -73.6660   -5.8330 O         1 <0>         0.0639
  35617 WAT       -32.6820  -73.6660   -5.5830 O         1 <0>         0.0615
  35618 WAT       -32.6820  -73.6660   -5.3330 O         1 <0>         0.0497
  35619 WAT       -32.6820  -73.6660   -5.0830 O         1 <0>         0.0330
  35620 WAT       -32.6820  -73.6660   -4.8330 O         1 <0>         0.0179
  35621 WAT       -32.6820  -73.6660   -4.5830 O         1 <0>         0.0083
  35622 WAT       -32.6820  -73.6660   -4.3330 O         1 <0>         0.0050
  35623 WAT       -32.6820  -73.6660   -4.0830 O         1 <0>         0.0134
  35624 WAT       -32.6820  -73.6660   -3.8330 O         1 <0>         0.0518
  35625 WAT       -32.6820  -73.6660   -3.5830 O         1 <0>         0.1427
  35626 WAT       -32.6820  -73.6660   -3.3330 O         1 <0>         0.2725
  35627 WAT       -32.6820  -73.6660   -3.0830 O         1 <0>         0.3571
  35628 WAT       -32.6820  -73.6660   -2.8330 O         1 <0>         0.3196
  35629 WAT       -32.6820  -73.6660   -2.5830 O         1 <0>         0.1957
  35630 WAT       -32.6820  -73.6660   -2.3330 O         1 <0>         0.0823
  35631 WAT       -32.6820  -73.6660   -2.0830 O         1 <0>         0.0231
  35632 WAT       -32.6820  -73.6660   -1.8330 O         1 <0>         0.0039
  35633 WAT       -32.6820  -73.6660   -1.5830 O         1 <0>         0.0003
  35634 WAT       -32.6820  -73.6660   -1.3330 O         1 <0>         0.0000
  35635 WAT       -32.6820  -73.6660   -1.0830 O         1 <0>         0.0000
  35636 WAT       -32.6820  -73.6660   -0.8330 O         1 <0>         0.0000
  35637 WAT       -32.6820  -73.6660   -0.5830 O         1 <0>         0.0000
  35638 WAT       -32.6820  -73.6660   -0.3330 O         1 <0>         0.0000
  35639 WAT       -32.6820  -73.6660   -0.0830 O         1 <0>         0.0000
  35640 WAT       -32.6820  -73.4160   -9.8330 O         1 <0>         0.0000
  35641 WAT       -32.6820  -73.4160   -9.5830 O         1 <0>         0.0000
  35642 WAT       -32.6820  -73.4160   -9.3330 O         1 <0>         0.0000
  35643 WAT       -32.6820  -73.4160   -9.0830 O         1 <0>         0.0000
  35644 WAT       -32.6820  -73.4160   -8.8330 O         1 <0>         0.0000
  35645 WAT       -32.6820  -73.4160   -8.5830 O         1 <0>         0.0000
  35646 WAT       -32.6820  -73.4160   -8.3330 O         1 <0>         0.0000
  35647 WAT       -32.6820  -73.4160   -8.0830 O         1 <0>         0.0000
  35648 WAT       -32.6820  -73.4160   -7.8330 O         1 <0>         0.0000
  35649 WAT       -32.6820  -73.4160   -7.5830 O         1 <0>         0.0004
  35650 WAT       -32.6820  -73.4160   -7.3330 O         1 <0>         0.0021
  35651 WAT       -32.6820  -73.4160   -7.0830 O         1 <0>         0.0071
  35652 WAT       -32.6820  -73.4160   -6.8330 O         1 <0>         0.0161
  35653 WAT       -32.6820  -73.4160   -6.5830 O         1 <0>         0.0271
  35654 WAT       -32.6820  -73.4160   -6.3330 O         1 <0>         0.0367
  35655 WAT       -32.6820  -73.4160   -6.0830 O         1 <0>         0.0421
  35656 WAT       -32.6820  -73.4160   -5.8330 O         1 <0>         0.0423
  35657 WAT       -32.6820  -73.4160   -5.5830 O         1 <0>         0.0374
  35658 WAT       -32.6820  -73.4160   -5.3330 O         1 <0>         0.0282
  35659 WAT       -32.6820  -73.4160   -5.0830 O         1 <0>         0.0176
  35660 WAT       -32.6820  -73.4160   -4.8330 O         1 <0>         0.0089
  35661 WAT       -32.6820  -73.4160   -4.5830 O         1 <0>         0.0039
  35662 WAT       -32.6820  -73.4160   -4.3330 O         1 <0>         0.0034
  35663 WAT       -32.6820  -73.4160   -4.0830 O         1 <0>         0.0143
  35664 WAT       -32.6820  -73.4160   -3.8330 O         1 <0>         0.0569
  35665 WAT       -32.6820  -73.4160   -3.5830 O         1 <0>         0.1540
  35666 WAT       -32.6820  -73.4160   -3.3330 O         1 <0>         0.2845
  35667 WAT       -32.6820  -73.4160   -3.0830 O         1 <0>         0.3571
  35668 WAT       -32.6820  -73.4160   -2.8330 O         1 <0>         0.3025
  35669 WAT       -32.6820  -73.4160   -2.5830 O         1 <0>         0.1730
  35670 WAT       -32.6820  -73.4160   -2.3330 O         1 <0>         0.0666
  35671 WAT       -32.6820  -73.4160   -2.0830 O         1 <0>         0.0165
  35672 WAT       -32.6820  -73.4160   -1.8330 O         1 <0>         0.0021
  35673 WAT       -32.6820  -73.4160   -1.5830 O         1 <0>         0.0001
  35674 WAT       -32.6820  -73.4160   -1.3330 O         1 <0>         0.0000
  35675 WAT       -32.6820  -73.4160   -1.0830 O         1 <0>         0.0000
  35676 WAT       -32.6820  -73.4160   -0.8330 O         1 <0>         0.0000
  35677 WAT       -32.6820  -73.4160   -0.5830 O         1 <0>         0.0000
  35678 WAT       -32.6820  -73.4160   -0.3330 O         1 <0>         0.0000
  35679 WAT       -32.6820  -73.4160   -0.0830 O         1 <0>         0.0000
  35680 WAT       -32.6820  -73.1660   -9.8330 O         1 <0>         0.0000
  35681 WAT       -32.6820  -73.1660   -9.5830 O         1 <0>         0.0000
  35682 WAT       -32.6820  -73.1660   -9.3330 O         1 <0>         0.0000
  35683 WAT       -32.6820  -73.1660   -9.0830 O         1 <0>         0.0000
  35684 WAT       -32.6820  -73.1660   -8.8330 O         1 <0>         0.0000
  35685 WAT       -32.6820  -73.1660   -8.5830 O         1 <0>         0.0000
  35686 WAT       -32.6820  -73.1660   -8.3330 O         1 <0>         0.0000
  35687 WAT       -32.6820  -73.1660   -8.0830 O         1 <0>         0.0000
  35688 WAT       -32.6820  -73.1660   -7.8330 O         1 <0>         0.0000
  35689 WAT       -32.6820  -73.1660   -7.5830 O         1 <0>         0.0005
  35690 WAT       -32.6820  -73.1660   -7.3330 O         1 <0>         0.0024
  35691 WAT       -32.6820  -73.1660   -7.0830 O         1 <0>         0.0071
  35692 WAT       -32.6820  -73.1660   -6.8330 O         1 <0>         0.0141
  35693 WAT       -32.6820  -73.1660   -6.5830 O         1 <0>         0.0207
  35694 WAT       -32.6820  -73.1660   -6.3330 O         1 <0>         0.0247
  35695 WAT       -32.6820  -73.1660   -6.0830 O         1 <0>         0.0256
  35696 WAT       -32.6820  -73.1660   -5.8330 O         1 <0>         0.0237
  35697 WAT       -32.6820  -73.1660   -5.5830 O         1 <0>         0.0195
  35698 WAT       -32.6820  -73.1660   -5.3330 O         1 <0>         0.0140
  35699 WAT       -32.6820  -73.1660   -5.0830 O         1 <0>         0.0084
  35700 WAT       -32.6820  -73.1660   -4.8330 O         1 <0>         0.0041
  35701 WAT       -32.6820  -73.1660   -4.5830 O         1 <0>         0.0018
  35702 WAT       -32.6820  -73.1660   -4.3330 O         1 <0>         0.0024
  35703 WAT       -32.6820  -73.1660   -4.0830 O         1 <0>         0.0119
  35704 WAT       -32.6820  -73.1660   -3.8330 O         1 <0>         0.0475
  35705 WAT       -32.6820  -73.1660   -3.5830 O         1 <0>         0.1261
  35706 WAT       -32.6820  -73.1660   -3.3330 O         1 <0>         0.2261
  35707 WAT       -32.6820  -73.1660   -3.0830 O         1 <0>         0.2729
  35708 WAT       -32.6820  -73.1660   -2.8330 O         1 <0>         0.2200
  35709 WAT       -32.6820  -73.1660   -2.5830 O         1 <0>         0.1180
  35710 WAT       -32.6820  -73.1660   -2.3330 O         1 <0>         0.0415
  35711 WAT       -32.6820  -73.1660   -2.0830 O         1 <0>         0.0085
  35712 WAT       -32.6820  -73.1660   -1.8330 O         1 <0>         0.0007
  35713 WAT       -32.6820  -73.1660   -1.5830 O         1 <0>         0.0000
  35714 WAT       -32.6820  -73.1660   -1.3330 O         1 <0>         0.0000
  35715 WAT       -32.6820  -73.1660   -1.0830 O         1 <0>         0.0000
  35716 WAT       -32.6820  -73.1660   -0.8330 O         1 <0>         0.0000
  35717 WAT       -32.6820  -73.1660   -0.5830 O         1 <0>         0.0000
  35718 WAT       -32.6820  -73.1660   -0.3330 O         1 <0>         0.0000
  35719 WAT       -32.6820  -73.1660   -0.0830 O         1 <0>         0.0000
  35720 WAT       -32.6820  -72.9160   -9.8330 O         1 <0>         0.0000
  35721 WAT       -32.6820  -72.9160   -9.5830 O         1 <0>         0.0000
  35722 WAT       -32.6820  -72.9160   -9.3330 O         1 <0>         0.0000
  35723 WAT       -32.6820  -72.9160   -9.0830 O         1 <0>         0.0000
  35724 WAT       -32.6820  -72.9160   -8.8330 O         1 <0>         0.0000
  35725 WAT       -32.6820  -72.9160   -8.5830 O         1 <0>         0.0000
  35726 WAT       -32.6820  -72.9160   -8.3330 O         1 <0>         0.0000
  35727 WAT       -32.6820  -72.9160   -8.0830 O         1 <0>         0.0000
  35728 WAT       -32.6820  -72.9160   -7.8330 O         1 <0>         0.0001
  35729 WAT       -32.6820  -72.9160   -7.5830 O         1 <0>         0.0005
  35730 WAT       -32.6820  -72.9160   -7.3330 O         1 <0>         0.0024
  35731 WAT       -32.6820  -72.9160   -7.0830 O         1 <0>         0.0062
  35732 WAT       -32.6820  -72.9160   -6.8330 O         1 <0>         0.0108
  35733 WAT       -32.6820  -72.9160   -6.5830 O         1 <0>         0.0135
  35734 WAT       -32.6820  -72.9160   -6.3330 O         1 <0>         0.0136
  35735 WAT       -32.6820  -72.9160   -6.0830 O         1 <0>         0.0125
  35736 WAT       -32.6820  -72.9160   -5.8330 O         1 <0>         0.0109
  35737 WAT       -32.6820  -72.9160   -5.5830 O         1 <0>         0.0087
  35738 WAT       -32.6820  -72.9160   -5.3330 O         1 <0>         0.0063
  35739 WAT       -32.6820  -72.9160   -5.0830 O         1 <0>         0.0039
  35740 WAT       -32.6820  -72.9160   -4.8330 O         1 <0>         0.0020
  35741 WAT       -32.6820  -72.9160   -4.5830 O         1 <0>         0.0011
  35742 WAT       -32.6820  -72.9160   -4.3330 O         1 <0>         0.0017
  35743 WAT       -32.6820  -72.9160   -4.0830 O         1 <0>         0.0081
  35744 WAT       -32.6820  -72.9160   -3.8330 O         1 <0>         0.0324
  35745 WAT       -32.6820  -72.9160   -3.5830 O         1 <0>         0.0851
  35746 WAT       -32.6820  -72.9160   -3.3330 O         1 <0>         0.1495
  35747 WAT       -32.6820  -72.9160   -3.0830 O         1 <0>         0.1749
  35748 WAT       -32.6820  -72.9160   -2.8330 O         1 <0>         0.1352
  35749 WAT       -32.6820  -72.9160   -2.5830 O         1 <0>         0.0683
  35750 WAT       -32.6820  -72.9160   -2.3330 O         1 <0>         0.0218
  35751 WAT       -32.6820  -72.9160   -2.0830 O         1 <0>         0.0036
  35752 WAT       -32.6820  -72.9160   -1.8330 O         1 <0>         0.0002
  35753 WAT       -32.6820  -72.9160   -1.5830 O         1 <0>         0.0000
  35754 WAT       -32.6820  -72.9160   -1.3330 O         1 <0>         0.0000
  35755 WAT       -32.6820  -72.9160   -1.0830 O         1 <0>         0.0000
  35756 WAT       -32.6820  -72.9160   -0.8330 O         1 <0>         0.0000
  35757 WAT       -32.6820  -72.9160   -0.5830 O         1 <0>         0.0000
  35758 WAT       -32.6820  -72.9160   -0.3330 O         1 <0>         0.0000
  35759 WAT       -32.6820  -72.9160   -0.0830 O         1 <0>         0.0000
  35760 WAT       -32.6820  -72.6660   -9.8330 O         1 <0>         0.0000
  35761 WAT       -32.6820  -72.6660   -9.5830 O         1 <0>         0.0000
  35762 WAT       -32.6820  -72.6660   -9.3330 O         1 <0>         0.0000
  35763 WAT       -32.6820  -72.6660   -9.0830 O         1 <0>         0.0000
  35764 WAT       -32.6820  -72.6660   -8.8330 O         1 <0>         0.0000
  35765 WAT       -32.6820  -72.6660   -8.5830 O         1 <0>         0.0000
  35766 WAT       -32.6820  -72.6660   -8.3330 O         1 <0>         0.0000
  35767 WAT       -32.6820  -72.6660   -8.0830 O         1 <0>         0.0000
  35768 WAT       -32.6820  -72.6660   -7.8330 O         1 <0>         0.0001
  35769 WAT       -32.6820  -72.6660   -7.5830 O         1 <0>         0.0005
  35770 WAT       -32.6820  -72.6660   -7.3330 O         1 <0>         0.0021
  35771 WAT       -32.6820  -72.6660   -7.0830 O         1 <0>         0.0050
  35772 WAT       -32.6820  -72.6660   -6.8330 O         1 <0>         0.0077
  35773 WAT       -32.6820  -72.6660   -6.5830 O         1 <0>         0.0081
  35774 WAT       -32.6820  -72.6660   -6.3330 O         1 <0>         0.0067
  35775 WAT       -32.6820  -72.6660   -6.0830 O         1 <0>         0.0053
  35776 WAT       -32.6820  -72.6660   -5.8330 O         1 <0>         0.0044
  35777 WAT       -32.6820  -72.6660   -5.5830 O         1 <0>         0.0038
  35778 WAT       -32.6820  -72.6660   -5.3330 O         1 <0>         0.0030
  35779 WAT       -32.6820  -72.6660   -5.0830 O         1 <0>         0.0020
  35780 WAT       -32.6820  -72.6660   -4.8330 O         1 <0>         0.0012
  35781 WAT       -32.6820  -72.6660   -4.5830 O         1 <0>         0.0008
  35782 WAT       -32.6820  -72.6660   -4.3330 O         1 <0>         0.0012
  35783 WAT       -32.6820  -72.6660   -4.0830 O         1 <0>         0.0049
  35784 WAT       -32.6820  -72.6660   -3.8330 O         1 <0>         0.0192
  35785 WAT       -32.6820  -72.6660   -3.5830 O         1 <0>         0.0506
  35786 WAT       -32.6820  -72.6660   -3.3330 O         1 <0>         0.0880
  35787 WAT       -32.6820  -72.6660   -3.0830 O         1 <0>         0.1008
  35788 WAT       -32.6820  -72.6660   -2.8330 O         1 <0>         0.0755
  35789 WAT       -32.6820  -72.6660   -2.5830 O         1 <0>         0.0363
  35790 WAT       -32.6820  -72.6660   -2.3330 O         1 <0>         0.0108
  35791 WAT       -32.6820  -72.6660   -2.0830 O         1 <0>         0.0017
  35792 WAT       -32.6820  -72.6660   -1.8330 O         1 <0>         0.0001
  35793 WAT       -32.6820  -72.6660   -1.5830 O         1 <0>         0.0000
  35794 WAT       -32.6820  -72.6660   -1.3330 O         1 <0>         0.0000
  35795 WAT       -32.6820  -72.6660   -1.0830 O         1 <0>         0.0000
  35796 WAT       -32.6820  -72.6660   -0.8330 O         1 <0>         0.0000
  35797 WAT       -32.6820  -72.6660   -0.5830 O         1 <0>         0.0000
  35798 WAT       -32.6820  -72.6660   -0.3330 O         1 <0>         0.0000
  35799 WAT       -32.6820  -72.6660   -0.0830 O         1 <0>         0.0000
  35800 WAT       -32.6820  -72.4160   -9.8330 O         1 <0>         0.0000
  35801 WAT       -32.6820  -72.4160   -9.5830 O         1 <0>         0.0000
  35802 WAT       -32.6820  -72.4160   -9.3330 O         1 <0>         0.0000
  35803 WAT       -32.6820  -72.4160   -9.0830 O         1 <0>         0.0000
  35804 WAT       -32.6820  -72.4160   -8.8330 O         1 <0>         0.0000
  35805 WAT       -32.6820  -72.4160   -8.5830 O         1 <0>         0.0000
  35806 WAT       -32.6820  -72.4160   -8.3330 O         1 <0>         0.0000
  35807 WAT       -32.6820  -72.4160   -8.0830 O         1 <0>         0.0000
  35808 WAT       -32.6820  -72.4160   -7.8330 O         1 <0>         0.0001
  35809 WAT       -32.6820  -72.4160   -7.5830 O         1 <0>         0.0005
  35810 WAT       -32.6820  -72.4160   -7.3330 O         1 <0>         0.0017
  35811 WAT       -32.6820  -72.4160   -7.0830 O         1 <0>         0.0038
  35812 WAT       -32.6820  -72.4160   -6.8330 O         1 <0>         0.0054
  35813 WAT       -32.6820  -72.4160   -6.5830 O         1 <0>         0.0050
  35814 WAT       -32.6820  -72.4160   -6.3330 O         1 <0>         0.0036
  35815 WAT       -32.6820  -72.4160   -6.0830 O         1 <0>         0.0029
  35816 WAT       -32.6820  -72.4160   -5.8330 O         1 <0>         0.0029
  35817 WAT       -32.6820  -72.4160   -5.5830 O         1 <0>         0.0029
  35818 WAT       -32.6820  -72.4160   -5.3330 O         1 <0>         0.0024
  35819 WAT       -32.6820  -72.4160   -5.0830 O         1 <0>         0.0016
  35820 WAT       -32.6820  -72.4160   -4.8330 O         1 <0>         0.0010
  35821 WAT       -32.6820  -72.4160   -4.5830 O         1 <0>         0.0006
  35822 WAT       -32.6820  -72.4160   -4.3330 O         1 <0>         0.0007
  35823 WAT       -32.6820  -72.4160   -4.0830 O         1 <0>         0.0024
  35824 WAT       -32.6820  -72.4160   -3.8330 O         1 <0>         0.0097
  35825 WAT       -32.6820  -72.4160   -3.5830 O         1 <0>         0.0255
  35826 WAT       -32.6820  -72.4160   -3.3330 O         1 <0>         0.0441
  35827 WAT       -32.6820  -72.4160   -3.0830 O         1 <0>         0.0497
  35828 WAT       -32.6820  -72.4160   -2.8330 O         1 <0>         0.0364
  35829 WAT       -32.6820  -72.4160   -2.5830 O         1 <0>         0.0170
  35830 WAT       -32.6820  -72.4160   -2.3330 O         1 <0>         0.0049
  35831 WAT       -32.6820  -72.4160   -2.0830 O         1 <0>         0.0007
  35832 WAT       -32.6820  -72.4160   -1.8330 O         1 <0>         0.0000
  35833 WAT       -32.6820  -72.4160   -1.5830 O         1 <0>         0.0000
  35834 WAT       -32.6820  -72.4160   -1.3330 O         1 <0>         0.0000
  35835 WAT       -32.6820  -72.4160   -1.0830 O         1 <0>         0.0000
  35836 WAT       -32.6820  -72.4160   -0.8330 O         1 <0>         0.0000
  35837 WAT       -32.6820  -72.4160   -0.5830 O         1 <0>         0.0000
  35838 WAT       -32.6820  -72.4160   -0.3330 O         1 <0>         0.0000
  35839 WAT       -32.6820  -72.4160   -0.0830 O         1 <0>         0.0000
  35840 WAT       -32.6820  -72.1660   -9.8330 O         1 <0>         0.0000
  35841 WAT       -32.6820  -72.1660   -9.5830 O         1 <0>         0.0000
  35842 WAT       -32.6820  -72.1660   -9.3330 O         1 <0>         0.0000
  35843 WAT       -32.6820  -72.1660   -9.0830 O         1 <0>         0.0000
  35844 WAT       -32.6820  -72.1660   -8.8330 O         1 <0>         0.0000
  35845 WAT       -32.6820  -72.1660   -8.5830 O         1 <0>         0.0000
  35846 WAT       -32.6820  -72.1660   -8.3330 O         1 <0>         0.0000
  35847 WAT       -32.6820  -72.1660   -8.0830 O         1 <0>         0.0000
  35848 WAT       -32.6820  -72.1660   -7.8330 O         1 <0>         0.0001
  35849 WAT       -32.6820  -72.1660   -7.5830 O         1 <0>         0.0004
  35850 WAT       -32.6820  -72.1660   -7.3330 O         1 <0>         0.0012
  35851 WAT       -32.6820  -72.1660   -7.0830 O         1 <0>         0.0026
  35852 WAT       -32.6820  -72.1660   -6.8330 O         1 <0>         0.0036
  35853 WAT       -32.6820  -72.1660   -6.5830 O         1 <0>         0.0036
  35854 WAT       -32.6820  -72.1660   -6.3330 O         1 <0>         0.0036
  35855 WAT       -32.6820  -72.1660   -6.0830 O         1 <0>         0.0043
  35856 WAT       -32.6820  -72.1660   -5.8330 O         1 <0>         0.0049
  35857 WAT       -32.6820  -72.1660   -5.5830 O         1 <0>         0.0045
  35858 WAT       -32.6820  -72.1660   -5.3330 O         1 <0>         0.0031
  35859 WAT       -32.6820  -72.1660   -5.0830 O         1 <0>         0.0018
  35860 WAT       -32.6820  -72.1660   -4.8330 O         1 <0>         0.0008
  35861 WAT       -32.6820  -72.1660   -4.5830 O         1 <0>         0.0004
  35862 WAT       -32.6820  -72.1660   -4.3330 O         1 <0>         0.0003
  35863 WAT       -32.6820  -72.1660   -4.0830 O         1 <0>         0.0009
  35864 WAT       -32.6820  -72.1660   -3.8330 O         1 <0>         0.0036
  35865 WAT       -32.6820  -72.1660   -3.5830 O         1 <0>         0.0097
  35866 WAT       -32.6820  -72.1660   -3.3330 O         1 <0>         0.0168
  35867 WAT       -32.6820  -72.1660   -3.0830 O         1 <0>         0.0187
  35868 WAT       -32.6820  -72.1660   -2.8330 O         1 <0>         0.0134
  35869 WAT       -32.6820  -72.1660   -2.5830 O         1 <0>         0.0061
  35870 WAT       -32.6820  -72.1660   -2.3330 O         1 <0>         0.0016
  35871 WAT       -32.6820  -72.1660   -2.0830 O         1 <0>         0.0002
  35872 WAT       -32.6820  -72.1660   -1.8330 O         1 <0>         0.0000
  35873 WAT       -32.6820  -72.1660   -1.5830 O         1 <0>         0.0000
  35874 WAT       -32.6820  -72.1660   -1.3330 O         1 <0>         0.0000
  35875 WAT       -32.6820  -72.1660   -1.0830 O         1 <0>         0.0000
  35876 WAT       -32.6820  -72.1660   -0.8330 O         1 <0>         0.0000
  35877 WAT       -32.6820  -72.1660   -0.5830 O         1 <0>         0.0000
  35878 WAT       -32.6820  -72.1660   -0.3330 O         1 <0>         0.0000
  35879 WAT       -32.6820  -72.1660   -0.0830 O         1 <0>         0.0000
  35880 WAT       -32.6820  -71.9160   -9.8330 O         1 <0>         0.0000
  35881 WAT       -32.6820  -71.9160   -9.5830 O         1 <0>         0.0000
  35882 WAT       -32.6820  -71.9160   -9.3330 O         1 <0>         0.0000
  35883 WAT       -32.6820  -71.9160   -9.0830 O         1 <0>         0.0000
  35884 WAT       -32.6820  -71.9160   -8.8330 O         1 <0>         0.0000
  35885 WAT       -32.6820  -71.9160   -8.5830 O         1 <0>         0.0000
  35886 WAT       -32.6820  -71.9160   -8.3330 O         1 <0>         0.0000
  35887 WAT       -32.6820  -71.9160   -8.0830 O         1 <0>         0.0000
  35888 WAT       -32.6820  -71.9160   -7.8330 O         1 <0>         0.0000
  35889 WAT       -32.6820  -71.9160   -7.5830 O         1 <0>         0.0003
  35890 WAT       -32.6820  -71.9160   -7.3330 O         1 <0>         0.0009
  35891 WAT       -32.6820  -71.9160   -7.0830 O         1 <0>         0.0018
  35892 WAT       -32.6820  -71.9160   -6.8330 O         1 <0>         0.0029
  35893 WAT       -32.6820  -71.9160   -6.5830 O         1 <0>         0.0049
  35894 WAT       -32.6820  -71.9160   -6.3330 O         1 <0>         0.0086
  35895 WAT       -32.6820  -71.9160   -6.0830 O         1 <0>         0.0119
  35896 WAT       -32.6820  -71.9160   -5.8330 O         1 <0>         0.0117
  35897 WAT       -32.6820  -71.9160   -5.5830 O         1 <0>         0.0082
  35898 WAT       -32.6820  -71.9160   -5.3330 O         1 <0>         0.0043
  35899 WAT       -32.6820  -71.9160   -5.0830 O         1 <0>         0.0018
  35900 WAT       -32.6820  -71.9160   -4.8330 O         1 <0>         0.0006
  35901 WAT       -32.6820  -71.9160   -4.5830 O         1 <0>         0.0002
  35902 WAT       -32.6820  -71.9160   -4.3330 O         1 <0>         0.0001
  35903 WAT       -32.6820  -71.9160   -4.0830 O         1 <0>         0.0002
  35904 WAT       -32.6820  -71.9160   -3.8330 O         1 <0>         0.0008
  35905 WAT       -32.6820  -71.9160   -3.5830 O         1 <0>         0.0024
  35906 WAT       -32.6820  -71.9160   -3.3330 O         1 <0>         0.0043
  35907 WAT       -32.6820  -71.9160   -3.0830 O         1 <0>         0.0047
  35908 WAT       -32.6820  -71.9160   -2.8330 O         1 <0>         0.0032
  35909 WAT       -32.6820  -71.9160   -2.5830 O         1 <0>         0.0013
  35910 WAT       -32.6820  -71.9160   -2.3330 O         1 <0>         0.0003
  35911 WAT       -32.6820  -71.9160   -2.0830 O         1 <0>         0.0000
  35912 WAT       -32.6820  -71.9160   -1.8330 O         1 <0>         0.0000
  35913 WAT       -32.6820  -71.9160   -1.5830 O         1 <0>         0.0000
  35914 WAT       -32.6820  -71.9160   -1.3330 O         1 <0>         0.0000
  35915 WAT       -32.6820  -71.9160   -1.0830 O         1 <0>         0.0000
  35916 WAT       -32.6820  -71.9160   -0.8330 O         1 <0>         0.0000
  35917 WAT       -32.6820  -71.9160   -0.5830 O         1 <0>         0.0000
  35918 WAT       -32.6820  -71.9160   -0.3330 O         1 <0>         0.0000
  35919 WAT       -32.6820  -71.9160   -0.0830 O         1 <0>         0.0000
  35920 WAT       -32.6820  -71.6660   -9.8330 O         1 <0>         0.0000
  35921 WAT       -32.6820  -71.6660   -9.5830 O         1 <0>         0.0000
  35922 WAT       -32.6820  -71.6660   -9.3330 O         1 <0>         0.0000
  35923 WAT       -32.6820  -71.6660   -9.0830 O         1 <0>         0.0000
  35924 WAT       -32.6820  -71.6660   -8.8330 O         1 <0>         0.0000
  35925 WAT       -32.6820  -71.6660   -8.5830 O         1 <0>         0.0000
  35926 WAT       -32.6820  -71.6660   -8.3330 O         1 <0>         0.0000
  35927 WAT       -32.6820  -71.6660   -8.0830 O         1 <0>         0.0000
  35928 WAT       -32.6820  -71.6660   -7.8330 O         1 <0>         0.0001
  35929 WAT       -32.6820  -71.6660   -7.5830 O         1 <0>         0.0005
  35930 WAT       -32.6820  -71.6660   -7.3330 O         1 <0>         0.0013
  35931 WAT       -32.6820  -71.6660   -7.0830 O         1 <0>         0.0026
  35932 WAT       -32.6820  -71.6660   -6.8330 O         1 <0>         0.0062
  35933 WAT       -32.6820  -71.6660   -6.5830 O         1 <0>         0.0154
  35934 WAT       -32.6820  -71.6660   -6.3330 O         1 <0>         0.0289
  35935 WAT       -32.6820  -71.6660   -6.0830 O         1 <0>         0.0364
  35936 WAT       -32.6820  -71.6660   -5.8330 O         1 <0>         0.0301
  35937 WAT       -32.6820  -71.6660   -5.5830 O         1 <0>         0.0165
  35938 WAT       -32.6820  -71.6660   -5.3330 O         1 <0>         0.0061
  35939 WAT       -32.6820  -71.6660   -5.0830 O         1 <0>         0.0017
  35940 WAT       -32.6820  -71.6660   -4.8330 O         1 <0>         0.0004
  35941 WAT       -32.6820  -71.6660   -4.5830 O         1 <0>         0.0001
  35942 WAT       -32.6820  -71.6660   -4.3330 O         1 <0>         0.0000
  35943 WAT       -32.6820  -71.6660   -4.0830 O         1 <0>         0.0000
  35944 WAT       -32.6820  -71.6660   -3.8330 O         1 <0>         0.0001
  35945 WAT       -32.6820  -71.6660   -3.5830 O         1 <0>         0.0003
  35946 WAT       -32.6820  -71.6660   -3.3330 O         1 <0>         0.0006
  35947 WAT       -32.6820  -71.6660   -3.0830 O         1 <0>         0.0006
  35948 WAT       -32.6820  -71.6660   -2.8330 O         1 <0>         0.0004
  35949 WAT       -32.6820  -71.6660   -2.5830 O         1 <0>         0.0001
  35950 WAT       -32.6820  -71.6660   -2.3330 O         1 <0>         0.0000
  35951 WAT       -32.6820  -71.6660   -2.0830 O         1 <0>         0.0000
  35952 WAT       -32.6820  -71.6660   -1.8330 O         1 <0>         0.0000
  35953 WAT       -32.6820  -71.6660   -1.5830 O         1 <0>         0.0000
  35954 WAT       -32.6820  -71.6660   -1.3330 O         1 <0>         0.0000
  35955 WAT       -32.6820  -71.6660   -1.0830 O         1 <0>         0.0000
  35956 WAT       -32.6820  -71.6660   -0.8330 O         1 <0>         0.0000
  35957 WAT       -32.6820  -71.6660   -0.5830 O         1 <0>         0.0000
  35958 WAT       -32.6820  -71.6660   -0.3330 O         1 <0>         0.0000
  35959 WAT       -32.6820  -71.6660   -0.0830 O         1 <0>         0.0000
  35960 WAT       -32.6820  -71.4160   -9.8330 O         1 <0>         0.0000
  35961 WAT       -32.6820  -71.4160   -9.5830 O         1 <0>         0.0000
  35962 WAT       -32.6820  -71.4160   -9.3330 O         1 <0>         0.0000
  35963 WAT       -32.6820  -71.4160   -9.0830 O         1 <0>         0.0000
  35964 WAT       -32.6820  -71.4160   -8.8330 O         1 <0>         0.0000
  35965 WAT       -32.6820  -71.4160   -8.5830 O         1 <0>         0.0000
  35966 WAT       -32.6820  -71.4160   -8.3330 O         1 <0>         0.0000
  35967 WAT       -32.6820  -71.4160   -8.0830 O         1 <0>         0.0000
  35968 WAT       -32.6820  -71.4160   -7.8330 O         1 <0>         0.0004
  35969 WAT       -32.6820  -71.4160   -7.5830 O         1 <0>         0.0014
  35970 WAT       -32.6820  -71.4160   -7.3330 O         1 <0>         0.0033
  35971 WAT       -32.6820  -71.4160   -7.0830 O         1 <0>         0.0071
  35972 WAT       -32.6820  -71.4160   -6.8330 O         1 <0>         0.0199
  35973 WAT       -32.6820  -71.4160   -6.5830 O         1 <0>         0.0489
  35974 WAT       -32.6820  -71.4160   -6.3330 O         1 <0>         0.0850
  35975 WAT       -32.6820  -71.4160   -6.0830 O         1 <0>         0.0972
  35976 WAT       -32.6820  -71.4160   -5.8330 O         1 <0>         0.0718
  35977 WAT       -32.6820  -71.4160   -5.5830 O         1 <0>         0.0339
  35978 WAT       -32.6820  -71.4160   -5.3330 O         1 <0>         0.0101
  35979 WAT       -32.6820  -71.4160   -5.0830 O         1 <0>         0.0018
  35980 WAT       -32.6820  -71.4160   -4.8330 O         1 <0>         0.0002
  35981 WAT       -32.6820  -71.4160   -4.5830 O         1 <0>         0.0000
  35982 WAT       -32.6820  -71.4160   -4.3330 O         1 <0>         0.0000
  35983 WAT       -32.6820  -71.4160   -4.0830 O         1 <0>         0.0000
  35984 WAT       -32.6820  -71.4160   -3.8330 O         1 <0>         0.0000
  35985 WAT       -32.6820  -71.4160   -3.5830 O         1 <0>         0.0000
  35986 WAT       -32.6820  -71.4160   -3.3330 O         1 <0>         0.0000
  35987 WAT       -32.6820  -71.4160   -3.0830 O         1 <0>         0.0000
  35988 WAT       -32.6820  -71.4160   -2.8330 O         1 <0>         0.0000
  35989 WAT       -32.6820  -71.4160   -2.5830 O         1 <0>         0.0000
  35990 WAT       -32.6820  -71.4160   -2.3330 O         1 <0>         0.0000
  35991 WAT       -32.6820  -71.4160   -2.0830 O         1 <0>         0.0000
  35992 WAT       -32.6820  -71.4160   -1.8330 O         1 <0>         0.0000
  35993 WAT       -32.6820  -71.4160   -1.5830 O         1 <0>         0.0000
  35994 WAT       -32.6820  -71.4160   -1.3330 O         1 <0>         0.0000
  35995 WAT       -32.6820  -71.4160   -1.0830 O         1 <0>         0.0000
  35996 WAT       -32.6820  -71.4160   -0.8330 O         1 <0>         0.0000
  35997 WAT       -32.6820  -71.4160   -0.5830 O         1 <0>         0.0000
  35998 WAT       -32.6820  -71.4160   -0.3330 O         1 <0>         0.0000
  35999 WAT       -32.6820  -71.4160   -0.0830 O         1 <0>         0.0000
  36000 WAT       -32.6820  -71.1660   -9.8330 O         1 <0>         0.0000
  36001 WAT       -32.6820  -71.1660   -9.5830 O         1 <0>         0.0000
  36002 WAT       -32.6820  -71.1660   -9.3330 O         1 <0>         0.0000
  36003 WAT       -32.6820  -71.1660   -9.0830 O         1 <0>         0.0000
  36004 WAT       -32.6820  -71.1660   -8.8330 O         1 <0>         0.0000
  36005 WAT       -32.6820  -71.1660   -8.5830 O         1 <0>         0.0000
  36006 WAT       -32.6820  -71.1660   -8.3330 O         1 <0>         0.0000
  36007 WAT       -32.6820  -71.1660   -8.0830 O         1 <0>         0.0002
  36008 WAT       -32.6820  -71.1660   -7.8330 O         1 <0>         0.0011
  36009 WAT       -32.6820  -71.1660   -7.5830 O         1 <0>         0.0035
  36010 WAT       -32.6820  -71.1660   -7.3330 O         1 <0>         0.0079
  36011 WAT       -32.6820  -71.1660   -7.0830 O         1 <0>         0.0190
  36012 WAT       -32.6820  -71.1660   -6.8330 O         1 <0>         0.0530
  36013 WAT       -32.6820  -71.1660   -6.5830 O         1 <0>         0.1214
  36014 WAT       -32.6820  -71.1660   -6.3330 O         1 <0>         0.1952
  36015 WAT       -32.6820  -71.1660   -6.0830 O         1 <0>         0.2065
  36016 WAT       -32.6820  -71.1660   -5.8330 O         1 <0>         0.1404
  36017 WAT       -32.6820  -71.1660   -5.5830 O         1 <0>         0.0605
  36018 WAT       -32.6820  -71.1660   -5.3330 O         1 <0>         0.0160
  36019 WAT       -32.6820  -71.1660   -5.0830 O         1 <0>         0.0021
  36020 WAT       -32.6820  -71.1660   -4.8330 O         1 <0>         0.0001
  36021 WAT       -32.6820  -71.1660   -4.5830 O         1 <0>         0.0000
  36022 WAT       -32.6820  -71.1660   -4.3330 O         1 <0>         0.0000
  36023 WAT       -32.6820  -71.1660   -4.0830 O         1 <0>         0.0000
  36024 WAT       -32.6820  -71.1660   -3.8330 O         1 <0>         0.0000
  36025 WAT       -32.6820  -71.1660   -3.5830 O         1 <0>         0.0000
  36026 WAT       -32.6820  -71.1660   -3.3330 O         1 <0>         0.0000
  36027 WAT       -32.6820  -71.1660   -3.0830 O         1 <0>         0.0000
  36028 WAT       -32.6820  -71.1660   -2.8330 O         1 <0>         0.0000
  36029 WAT       -32.6820  -71.1660   -2.5830 O         1 <0>         0.0000
  36030 WAT       -32.6820  -71.1660   -2.3330 O         1 <0>         0.0000
  36031 WAT       -32.6820  -71.1660   -2.0830 O         1 <0>         0.0000
  36032 WAT       -32.6820  -71.1660   -1.8330 O         1 <0>         0.0000
  36033 WAT       -32.6820  -71.1660   -1.5830 O         1 <0>         0.0000
  36034 WAT       -32.6820  -71.1660   -1.3330 O         1 <0>         0.0000
  36035 WAT       -32.6820  -71.1660   -1.0830 O         1 <0>         0.0000
  36036 WAT       -32.6820  -71.1660   -0.8330 O         1 <0>         0.0000
  36037 WAT       -32.6820  -71.1660   -0.5830 O         1 <0>         0.0000
  36038 WAT       -32.6820  -71.1660   -0.3330 O         1 <0>         0.0000
  36039 WAT       -32.6820  -71.1660   -0.0830 O         1 <0>         0.0000
  36040 WAT       -32.6820  -70.9160   -9.8330 O         1 <0>         0.0000
  36041 WAT       -32.6820  -70.9160   -9.5830 O         1 <0>         0.0000
  36042 WAT       -32.6820  -70.9160   -9.3330 O         1 <0>         0.0000
  36043 WAT       -32.6820  -70.9160   -9.0830 O         1 <0>         0.0000
  36044 WAT       -32.6820  -70.9160   -8.8330 O         1 <0>         0.0000
  36045 WAT       -32.6820  -70.9160   -8.5830 O         1 <0>         0.0000
  36046 WAT       -32.6820  -70.9160   -8.3330 O         1 <0>         0.0000
  36047 WAT       -32.6820  -70.9160   -8.0830 O         1 <0>         0.0004
  36048 WAT       -32.6820  -70.9160   -7.8330 O         1 <0>         0.0022
  36049 WAT       -32.6820  -70.9160   -7.5830 O         1 <0>         0.0065
  36050 WAT       -32.6820  -70.9160   -7.3330 O         1 <0>         0.0150
  36051 WAT       -32.6820  -70.9160   -7.0830 O         1 <0>         0.0400
  36052 WAT       -32.6820  -70.9160   -6.8330 O         1 <0>         0.1081
  36053 WAT       -32.6820  -70.9160   -6.5830 O         1 <0>         0.2318
  36054 WAT       -32.6820  -70.9160   -6.3330 O         1 <0>         0.3463
  36055 WAT       -32.6820  -70.9160   -6.0830 O         1 <0>         0.3405
  36056 WAT       -32.6820  -70.9160   -5.8330 O         1 <0>         0.2154
  36057 WAT       -32.6820  -70.9160   -5.5830 O         1 <0>         0.0864
  36058 WAT       -32.6820  -70.9160   -5.3330 O         1 <0>         0.0209
  36059 WAT       -32.6820  -70.9160   -5.0830 O         1 <0>         0.0023
  36060 WAT       -32.6820  -70.9160   -4.8330 O         1 <0>         0.0001
  36061 WAT       -32.6820  -70.9160   -4.5830 O         1 <0>         0.0000
  36062 WAT       -32.6820  -70.9160   -4.3330 O         1 <0>         0.0000
  36063 WAT       -32.6820  -70.9160   -4.0830 O         1 <0>         0.0000
  36064 WAT       -32.6820  -70.9160   -3.8330 O         1 <0>         0.0000
  36065 WAT       -32.6820  -70.9160   -3.5830 O         1 <0>         0.0000
  36066 WAT       -32.6820  -70.9160   -3.3330 O         1 <0>         0.0000
  36067 WAT       -32.6820  -70.9160   -3.0830 O         1 <0>         0.0000
  36068 WAT       -32.6820  -70.9160   -2.8330 O         1 <0>         0.0000
  36069 WAT       -32.6820  -70.9160   -2.5830 O         1 <0>         0.0000
  36070 WAT       -32.6820  -70.9160   -2.3330 O         1 <0>         0.0000
  36071 WAT       -32.6820  -70.9160   -2.0830 O         1 <0>         0.0000
  36072 WAT       -32.6820  -70.9160   -1.8330 O         1 <0>         0.0000
  36073 WAT       -32.6820  -70.9160   -1.5830 O         1 <0>         0.0000
  36074 WAT       -32.6820  -70.9160   -1.3330 O         1 <0>         0.0000
  36075 WAT       -32.6820  -70.9160   -1.0830 O         1 <0>         0.0000
  36076 WAT       -32.6820  -70.9160   -0.8330 O         1 <0>         0.0000
  36077 WAT       -32.6820  -70.9160   -0.5830 O         1 <0>         0.0000
  36078 WAT       -32.6820  -70.9160   -0.3330 O         1 <0>         0.0000
  36079 WAT       -32.6820  -70.9160   -0.0830 O         1 <0>         0.0000
  36080 WAT       -32.6820  -70.6660   -9.8330 O         1 <0>         0.0000
  36081 WAT       -32.6820  -70.6660   -9.5830 O         1 <0>         0.0000
  36082 WAT       -32.6820  -70.6660   -9.3330 O         1 <0>         0.0000
  36083 WAT       -32.6820  -70.6660   -9.0830 O         1 <0>         0.0000
  36084 WAT       -32.6820  -70.6660   -8.8330 O         1 <0>         0.0000
  36085 WAT       -32.6820  -70.6660   -8.5830 O         1 <0>         0.0000
  36086 WAT       -32.6820  -70.6660   -8.3330 O         1 <0>         0.0001
  36087 WAT       -32.6820  -70.6660   -8.0830 O         1 <0>         0.0007
  36088 WAT       -32.6820  -70.6660   -7.8330 O         1 <0>         0.0031
  36089 WAT       -32.6820  -70.6660   -7.5830 O         1 <0>         0.0090
  36090 WAT       -32.6820  -70.6660   -7.3330 O         1 <0>         0.0225
  36091 WAT       -32.6820  -70.6660   -7.0830 O         1 <0>         0.0639
  36092 WAT       -32.6820  -70.6660   -6.8330 O         1 <0>         0.1687
  36093 WAT       -32.6820  -70.6660   -6.5830 O         1 <0>         0.3413
  36094 WAT       -32.6820  -70.6660   -6.3330 O         1 <0>         0.4756
  36095 WAT       -32.6820  -70.6660   -6.0830 O         1 <0>         0.4356
  36096 WAT       -32.6820  -70.6660   -5.8330 O         1 <0>         0.2572
  36097 WAT       -32.6820  -70.6660   -5.5830 O         1 <0>         0.0963
  36098 WAT       -32.6820  -70.6660   -5.3330 O         1 <0>         0.0215
  36099 WAT       -32.6820  -70.6660   -5.0830 O         1 <0>         0.0019
  36100 WAT       -32.6820  -70.6660   -4.8330 O         1 <0>         0.0000
  36101 WAT       -32.6820  -70.6660   -4.5830 O         1 <0>         0.0000
  36102 WAT       -32.6820  -70.6660   -4.3330 O         1 <0>         0.0000
  36103 WAT       -32.6820  -70.6660   -4.0830 O         1 <0>         0.0000
  36104 WAT       -32.6820  -70.6660   -3.8330 O         1 <0>         0.0000
  36105 WAT       -32.6820  -70.6660   -3.5830 O         1 <0>         0.0000
  36106 WAT       -32.6820  -70.6660   -3.3330 O         1 <0>         0.0000
  36107 WAT       -32.6820  -70.6660   -3.0830 O         1 <0>         0.0000
  36108 WAT       -32.6820  -70.6660   -2.8330 O         1 <0>         0.0000
  36109 WAT       -32.6820  -70.6660   -2.5830 O         1 <0>         0.0000
  36110 WAT       -32.6820  -70.6660   -2.3330 O         1 <0>         0.0000
  36111 WAT       -32.6820  -70.6660   -2.0830 O         1 <0>         0.0000
  36112 WAT       -32.6820  -70.6660   -1.8330 O         1 <0>         0.0000
  36113 WAT       -32.6820  -70.6660   -1.5830 O         1 <0>         0.0000
  36114 WAT       -32.6820  -70.6660   -1.3330 O         1 <0>         0.0000
  36115 WAT       -32.6820  -70.6660   -1.0830 O         1 <0>         0.0000
  36116 WAT       -32.6820  -70.6660   -0.8330 O         1 <0>         0.0000
  36117 WAT       -32.6820  -70.6660   -0.5830 O         1 <0>         0.0000
  36118 WAT       -32.6820  -70.6660   -0.3330 O         1 <0>         0.0000
  36119 WAT       -32.6820  -70.6660   -0.0830 O         1 <0>         0.0000
  36120 WAT       -32.6820  -70.4160   -9.8330 O         1 <0>         0.0000
  36121 WAT       -32.6820  -70.4160   -9.5830 O         1 <0>         0.0000
  36122 WAT       -32.6820  -70.4160   -9.3330 O         1 <0>         0.0000
  36123 WAT       -32.6820  -70.4160   -9.0830 O         1 <0>         0.0000
  36124 WAT       -32.6820  -70.4160   -8.8330 O         1 <0>         0.0000
  36125 WAT       -32.6820  -70.4160   -8.5830 O         1 <0>         0.0000
  36126 WAT       -32.6820  -70.4160   -8.3330 O         1 <0>         0.0001
  36127 WAT       -32.6820  -70.4160   -8.0830 O         1 <0>         0.0008
  36128 WAT       -32.6820  -70.4160   -7.8330 O         1 <0>         0.0034
  36129 WAT       -32.6820  -70.4160   -7.5830 O         1 <0>         0.0095
  36130 WAT       -32.6820  -70.4160   -7.3330 O         1 <0>         0.0259
  36131 WAT       -32.6820  -70.4160   -7.0830 O         1 <0>         0.0771
  36132 WAT       -32.6820  -70.4160   -6.8330 O         1 <0>         0.2001
  36133 WAT       -32.6820  -70.4160   -6.5830 O         1 <0>         0.3851
  36134 WAT       -32.6820  -70.4160   -6.3330 O         1 <0>         0.5046
  36135 WAT       -32.6820  -70.4160   -6.0830 O         1 <0>         0.4336
  36136 WAT       -32.6820  -70.4160   -5.8330 O         1 <0>         0.2402
  36137 WAT       -32.6820  -70.4160   -5.5830 O         1 <0>         0.0844
  36138 WAT       -32.6820  -70.4160   -5.3330 O         1 <0>         0.0170
  36139 WAT       -32.6820  -70.4160   -5.0830 O         1 <0>         0.0011
  36140 WAT       -32.6820  -70.4160   -4.8330 O         1 <0>         0.0000
  36141 WAT       -32.6820  -70.4160   -4.5830 O         1 <0>         0.0000
  36142 WAT       -32.6820  -70.4160   -4.3330 O         1 <0>         0.0000
  36143 WAT       -32.6820  -70.4160   -4.0830 O         1 <0>         0.0000
  36144 WAT       -32.6820  -70.4160   -3.8330 O         1 <0>         0.0000
  36145 WAT       -32.6820  -70.4160   -3.5830 O         1 <0>         0.0000
  36146 WAT       -32.6820  -70.4160   -3.3330 O         1 <0>         0.0000
  36147 WAT       -32.6820  -70.4160   -3.0830 O         1 <0>         0.0000
  36148 WAT       -32.6820  -70.4160   -2.8330 O         1 <0>         0.0000
  36149 WAT       -32.6820  -70.4160   -2.5830 O         1 <0>         0.0000
  36150 WAT       -32.6820  -70.4160   -2.3330 O         1 <0>         0.0000
  36151 WAT       -32.6820  -70.4160   -2.0830 O         1 <0>         0.0000
  36152 WAT       -32.6820  -70.4160   -1.8330 O         1 <0>         0.0000
  36153 WAT       -32.6820  -70.4160   -1.5830 O         1 <0>         0.0000
  36154 WAT       -32.6820  -70.4160   -1.3330 O         1 <0>         0.0000
  36155 WAT       -32.6820  -70.4160   -1.0830 O         1 <0>         0.0000
  36156 WAT       -32.6820  -70.4160   -0.8330 O         1 <0>         0.0000
  36157 WAT       -32.6820  -70.4160   -0.5830 O         1 <0>         0.0000
  36158 WAT       -32.6820  -70.4160   -0.3330 O         1 <0>         0.0000
  36159 WAT       -32.6820  -70.4160   -0.0830 O         1 <0>         0.0000
  36160 WAT       -32.6820  -70.1660   -9.8330 O         1 <0>         0.0000
  36161 WAT       -32.6820  -70.1660   -9.5830 O         1 <0>         0.0000
  36162 WAT       -32.6820  -70.1660   -9.3330 O         1 <0>         0.0000
  36163 WAT       -32.6820  -70.1660   -9.0830 O         1 <0>         0.0000
  36164 WAT       -32.6820  -70.1660   -8.8330 O         1 <0>         0.0000
  36165 WAT       -32.6820  -70.1660   -8.5830 O         1 <0>         0.0000
  36166 WAT       -32.6820  -70.1660   -8.3330 O         1 <0>         0.0001
  36167 WAT       -32.6820  -70.1660   -8.0830 O         1 <0>         0.0007
  36168 WAT       -32.6820  -70.1660   -7.8330 O         1 <0>         0.0027
  36169 WAT       -32.6820  -70.1660   -7.5830 O         1 <0>         0.0075
  36170 WAT       -32.6820  -70.1660   -7.3330 O         1 <0>         0.0221
  36171 WAT       -32.6820  -70.1660   -7.0830 O         1 <0>         0.0690
  36172 WAT       -32.6820  -70.1660   -6.8330 O         1 <0>         0.1768
  36173 WAT       -32.6820  -70.1660   -6.5830 O         1 <0>         0.3271
  36174 WAT       -32.6820  -70.1660   -6.3330 O         1 <0>         0.4081
  36175 WAT       -32.6820  -70.1660   -6.0830 O         1 <0>         0.3333
  36176 WAT       -32.6820  -70.1660   -5.8330 O         1 <0>         0.1753
  36177 WAT       -32.6820  -70.1660   -5.5830 O         1 <0>         0.0580
  36178 WAT       -32.6820  -70.1660   -5.3330 O         1 <0>         0.0103
  36179 WAT       -32.6820  -70.1660   -5.0830 O         1 <0>         0.0006
  36180 WAT       -32.6820  -70.1660   -4.8330 O         1 <0>         0.0000
  36181 WAT       -32.6820  -70.1660   -4.5830 O         1 <0>         0.0000
  36182 WAT       -32.6820  -70.1660   -4.3330 O         1 <0>         0.0000
  36183 WAT       -32.6820  -70.1660   -4.0830 O         1 <0>         0.0000
  36184 WAT       -32.6820  -70.1660   -3.8330 O         1 <0>         0.0000
  36185 WAT       -32.6820  -70.1660   -3.5830 O         1 <0>         0.0000
  36186 WAT       -32.6820  -70.1660   -3.3330 O         1 <0>         0.0000
  36187 WAT       -32.6820  -70.1660   -3.0830 O         1 <0>         0.0000
  36188 WAT       -32.6820  -70.1660   -2.8330 O         1 <0>         0.0000
  36189 WAT       -32.6820  -70.1660   -2.5830 O         1 <0>         0.0000
  36190 WAT       -32.6820  -70.1660   -2.3330 O         1 <0>         0.0000
  36191 WAT       -32.6820  -70.1660   -2.0830 O         1 <0>         0.0000
  36192 WAT       -32.6820  -70.1660   -1.8330 O         1 <0>         0.0000
  36193 WAT       -32.6820  -70.1660   -1.5830 O         1 <0>         0.0000
  36194 WAT       -32.6820  -70.1660   -1.3330 O         1 <0>         0.0000
  36195 WAT       -32.6820  -70.1660   -1.0830 O         1 <0>         0.0000
  36196 WAT       -32.6820  -70.1660   -0.8330 O         1 <0>         0.0000
  36197 WAT       -32.6820  -70.1660   -0.5830 O         1 <0>         0.0000
  36198 WAT       -32.6820  -70.1660   -0.3330 O         1 <0>         0.0000
  36199 WAT       -32.6820  -70.1660   -0.0830 O         1 <0>         0.0000
  36200 WAT       -32.6820  -69.9160   -9.8330 O         1 <0>         0.0000
  36201 WAT       -32.6820  -69.9160   -9.5830 O         1 <0>         0.0000
  36202 WAT       -32.6820  -69.9160   -9.3330 O         1 <0>         0.0000
  36203 WAT       -32.6820  -69.9160   -9.0830 O         1 <0>         0.0000
  36204 WAT       -32.6820  -69.9160   -8.8330 O         1 <0>         0.0000
  36205 WAT       -32.6820  -69.9160   -8.5830 O         1 <0>         0.0000
  36206 WAT       -32.6820  -69.9160   -8.3330 O         1 <0>         0.0001
  36207 WAT       -32.6820  -69.9160   -8.0830 O         1 <0>         0.0004
  36208 WAT       -32.6820  -69.9160   -7.8330 O         1 <0>         0.0016
  36209 WAT       -32.6820  -69.9160   -7.5830 O         1 <0>         0.0044
  36210 WAT       -32.6820  -69.9160   -7.3330 O         1 <0>         0.0136
  36211 WAT       -32.6820  -69.9160   -7.0830 O         1 <0>         0.0443
  36212 WAT       -32.6820  -69.9160   -6.8330 O         1 <0>         0.1137
  36213 WAT       -32.6820  -69.9160   -6.5830 O         1 <0>         0.2048
  36214 WAT       -32.6820  -69.9160   -6.3330 O         1 <0>         0.2469
  36215 WAT       -32.6820  -69.9160   -6.0830 O         1 <0>         0.1946
  36216 WAT       -32.6820  -69.9160   -5.8330 O         1 <0>         0.0985
  36217 WAT       -32.6820  -69.9160   -5.5830 O         1 <0>         0.0306
  36218 WAT       -32.6820  -69.9160   -5.3330 O         1 <0>         0.0048
  36219 WAT       -32.6820  -69.9160   -5.0830 O         1 <0>         0.0003
  36220 WAT       -32.6820  -69.9160   -4.8330 O         1 <0>         0.0000
  36221 WAT       -32.6820  -69.9160   -4.5830 O         1 <0>         0.0000
  36222 WAT       -32.6820  -69.9160   -4.3330 O         1 <0>         0.0000
  36223 WAT       -32.6820  -69.9160   -4.0830 O         1 <0>         0.0000
  36224 WAT       -32.6820  -69.9160   -3.8330 O         1 <0>         0.0000
  36225 WAT       -32.6820  -69.9160   -3.5830 O         1 <0>         0.0000
  36226 WAT       -32.6820  -69.9160   -3.3330 O         1 <0>         0.0000
  36227 WAT       -32.6820  -69.9160   -3.0830 O         1 <0>         0.0000
  36228 WAT       -32.6820  -69.9160   -2.8330 O         1 <0>         0.0000
  36229 WAT       -32.6820  -69.9160   -2.5830 O         1 <0>         0.0000
  36230 WAT       -32.6820  -69.9160   -2.3330 O         1 <0>         0.0000
  36231 WAT       -32.6820  -69.9160   -2.0830 O         1 <0>         0.0000
  36232 WAT       -32.6820  -69.9160   -1.8330 O         1 <0>         0.0000
  36233 WAT       -32.6820  -69.9160   -1.5830 O         1 <0>         0.0000
  36234 WAT       -32.6820  -69.9160   -1.3330 O         1 <0>         0.0000
  36235 WAT       -32.6820  -69.9160   -1.0830 O         1 <0>         0.0000
  36236 WAT       -32.6820  -69.9160   -0.8330 O         1 <0>         0.0000
  36237 WAT       -32.6820  -69.9160   -0.5830 O         1 <0>         0.0000
  36238 WAT       -32.6820  -69.9160   -0.3330 O         1 <0>         0.0000
  36239 WAT       -32.6820  -69.9160   -0.0830 O         1 <0>         0.0000
  36240 WAT       -32.6820  -69.6660   -9.8330 O         1 <0>         0.0000
  36241 WAT       -32.6820  -69.6660   -9.5830 O         1 <0>         0.0000
  36242 WAT       -32.6820  -69.6660   -9.3330 O         1 <0>         0.0000
  36243 WAT       -32.6820  -69.6660   -9.0830 O         1 <0>         0.0000
  36244 WAT       -32.6820  -69.6660   -8.8330 O         1 <0>         0.0000
  36245 WAT       -32.6820  -69.6660   -8.5830 O         1 <0>         0.0000
  36246 WAT       -32.6820  -69.6660   -8.3330 O         1 <0>         0.0000
  36247 WAT       -32.6820  -69.6660   -8.0830 O         1 <0>         0.0002
  36248 WAT       -32.6820  -69.6660   -7.8330 O         1 <0>         0.0006
  36249 WAT       -32.6820  -69.6660   -7.5830 O         1 <0>         0.0018
  36250 WAT       -32.6820  -69.6660   -7.3330 O         1 <0>         0.0057
  36251 WAT       -32.6820  -69.6660   -7.0830 O         1 <0>         0.0198
  36252 WAT       -32.6820  -69.6660   -6.8330 O         1 <0>         0.0520
  36253 WAT       -32.6820  -69.6660   -6.5830 O         1 <0>         0.0930
  36254 WAT       -32.6820  -69.6660   -6.3330 O         1 <0>         0.1100
  36255 WAT       -32.6820  -69.6660   -6.0830 O         1 <0>         0.0848
  36256 WAT       -32.6820  -69.6660   -5.8330 O         1 <0>         0.0416
  36257 WAT       -32.6820  -69.6660   -5.5830 O         1 <0>         0.0121
  36258 WAT       -32.6820  -69.6660   -5.3330 O         1 <0>         0.0017
  36259 WAT       -32.6820  -69.6660   -5.0830 O         1 <0>         0.0001
  36260 WAT       -32.6820  -69.6660   -4.8330 O         1 <0>         0.0000
  36261 WAT       -32.6820  -69.6660   -4.5830 O         1 <0>         0.0000
  36262 WAT       -32.6820  -69.6660   -4.3330 O         1 <0>         0.0000
  36263 WAT       -32.6820  -69.6660   -4.0830 O         1 <0>         0.0000
  36264 WAT       -32.6820  -69.6660   -3.8330 O         1 <0>         0.0000
  36265 WAT       -32.6820  -69.6660   -3.5830 O         1 <0>         0.0000
  36266 WAT       -32.6820  -69.6660   -3.3330 O         1 <0>         0.0000
  36267 WAT       -32.6820  -69.6660   -3.0830 O         1 <0>         0.0000
  36268 WAT       -32.6820  -69.6660   -2.8330 O         1 <0>         0.0000
  36269 WAT       -32.6820  -69.6660   -2.5830 O         1 <0>         0.0000
  36270 WAT       -32.6820  -69.6660   -2.3330 O         1 <0>         0.0000
  36271 WAT       -32.6820  -69.6660   -2.0830 O         1 <0>         0.0000
  36272 WAT       -32.6820  -69.6660   -1.8330 O         1 <0>         0.0000
  36273 WAT       -32.6820  -69.6660   -1.5830 O         1 <0>         0.0000
  36274 WAT       -32.6820  -69.6660   -1.3330 O         1 <0>         0.0000
  36275 WAT       -32.6820  -69.6660   -1.0830 O         1 <0>         0.0000
  36276 WAT       -32.6820  -69.6660   -0.8330 O         1 <0>         0.0000
  36277 WAT       -32.6820  -69.6660   -0.5830 O         1 <0>         0.0000
  36278 WAT       -32.6820  -69.6660   -0.3330 O         1 <0>         0.0000
  36279 WAT       -32.6820  -69.6660   -0.0830 O         1 <0>         0.0000
  36280 WAT       -32.6820  -69.4160   -9.8330 O         1 <0>         0.0000
  36281 WAT       -32.6820  -69.4160   -9.5830 O         1 <0>         0.0000
  36282 WAT       -32.6820  -69.4160   -9.3330 O         1 <0>         0.0000
  36283 WAT       -32.6820  -69.4160   -9.0830 O         1 <0>         0.0000
  36284 WAT       -32.6820  -69.4160   -8.8330 O         1 <0>         0.0000
  36285 WAT       -32.6820  -69.4160   -8.5830 O         1 <0>         0.0000
  36286 WAT       -32.6820  -69.4160   -8.3330 O         1 <0>         0.0000
  36287 WAT       -32.6820  -69.4160   -8.0830 O         1 <0>         0.0001
  36288 WAT       -32.6820  -69.4160   -7.8330 O         1 <0>         0.0002
  36289 WAT       -32.6820  -69.4160   -7.5830 O         1 <0>         0.0004
  36290 WAT       -32.6820  -69.4160   -7.3330 O         1 <0>         0.0015
  36291 WAT       -32.6820  -69.4160   -7.0830 O         1 <0>         0.0059
  36292 WAT       -32.6820  -69.4160   -6.8330 O         1 <0>         0.0165
  36293 WAT       -32.6820  -69.4160   -6.5830 O         1 <0>         0.0302
  36294 WAT       -32.6820  -69.4160   -6.3330 O         1 <0>         0.0358
  36295 WAT       -32.6820  -69.4160   -6.0830 O         1 <0>         0.0273
  36296 WAT       -32.6820  -69.4160   -5.8330 O         1 <0>         0.0130
  36297 WAT       -32.6820  -69.4160   -5.5830 O         1 <0>         0.0036
  36298 WAT       -32.6820  -69.4160   -5.3330 O         1 <0>         0.0005
  36299 WAT       -32.6820  -69.4160   -5.0830 O         1 <0>         0.0000
  36300 WAT       -32.6820  -69.4160   -4.8330 O         1 <0>         0.0000
  36301 WAT       -32.6820  -69.4160   -4.5830 O         1 <0>         0.0000
  36302 WAT       -32.6820  -69.4160   -4.3330 O         1 <0>         0.0000
  36303 WAT       -32.6820  -69.4160   -4.0830 O         1 <0>         0.0000
  36304 WAT       -32.6820  -69.4160   -3.8330 O         1 <0>         0.0000
  36305 WAT       -32.6820  -69.4160   -3.5830 O         1 <0>         0.0000
  36306 WAT       -32.6820  -69.4160   -3.3330 O         1 <0>         0.0000
  36307 WAT       -32.6820  -69.4160   -3.0830 O         1 <0>         0.0000
  36308 WAT       -32.6820  -69.4160   -2.8330 O         1 <0>         0.0000
  36309 WAT       -32.6820  -69.4160   -2.5830 O         1 <0>         0.0000
  36310 WAT       -32.6820  -69.4160   -2.3330 O         1 <0>         0.0000
  36311 WAT       -32.6820  -69.4160   -2.0830 O         1 <0>         0.0000
  36312 WAT       -32.6820  -69.4160   -1.8330 O         1 <0>         0.0000
  36313 WAT       -32.6820  -69.4160   -1.5830 O         1 <0>         0.0000
  36314 WAT       -32.6820  -69.4160   -1.3330 O         1 <0>         0.0000
  36315 WAT       -32.6820  -69.4160   -1.0830 O         1 <0>         0.0000
  36316 WAT       -32.6820  -69.4160   -0.8330 O         1 <0>         0.0000
  36317 WAT       -32.6820  -69.4160   -0.5830 O         1 <0>         0.0000
  36318 WAT       -32.6820  -69.4160   -0.3330 O         1 <0>         0.0000
  36319 WAT       -32.6820  -69.4160   -0.0830 O         1 <0>         0.0000
  36320 WAT       -32.6820  -69.1660   -9.8330 O         1 <0>         0.0000
  36321 WAT       -32.6820  -69.1660   -9.5830 O         1 <0>         0.0000
  36322 WAT       -32.6820  -69.1660   -9.3330 O         1 <0>         0.0000
  36323 WAT       -32.6820  -69.1660   -9.0830 O         1 <0>         0.0000
  36324 WAT       -32.6820  -69.1660   -8.8330 O         1 <0>         0.0000
  36325 WAT       -32.6820  -69.1660   -8.5830 O         1 <0>         0.0000
  36326 WAT       -32.6820  -69.1660   -8.3330 O         1 <0>         0.0000
  36327 WAT       -32.6820  -69.1660   -8.0830 O         1 <0>         0.0000
  36328 WAT       -32.6820  -69.1660   -7.8330 O         1 <0>         0.0000
  36329 WAT       -32.6820  -69.1660   -7.5830 O         1 <0>         0.0001
  36330 WAT       -32.6820  -69.1660   -7.3330 O         1 <0>         0.0002
  36331 WAT       -32.6820  -69.1660   -7.0830 O         1 <0>         0.0011
  36332 WAT       -32.6820  -69.1660   -6.8330 O         1 <0>         0.0036
  36333 WAT       -32.6820  -69.1660   -6.5830 O         1 <0>         0.0070
  36334 WAT       -32.6820  -69.1660   -6.3330 O         1 <0>         0.0085
  36335 WAT       -32.6820  -69.1660   -6.0830 O         1 <0>         0.0066
  36336 WAT       -32.6820  -69.1660   -5.8330 O         1 <0>         0.0031
  36337 WAT       -32.6820  -69.1660   -5.5830 O         1 <0>         0.0009
  36338 WAT       -32.6820  -69.1660   -5.3330 O         1 <0>         0.0001
  36339 WAT       -32.6820  -69.1660   -5.0830 O         1 <0>         0.0000
  36340 WAT       -32.6820  -69.1660   -4.8330 O         1 <0>         0.0000
  36341 WAT       -32.6820  -69.1660   -4.5830 O         1 <0>         0.0000
  36342 WAT       -32.6820  -69.1660   -4.3330 O         1 <0>         0.0000
  36343 WAT       -32.6820  -69.1660   -4.0830 O         1 <0>         0.0000
  36344 WAT       -32.6820  -69.1660   -3.8330 O         1 <0>         0.0000
  36345 WAT       -32.6820  -69.1660   -3.5830 O         1 <0>         0.0000
  36346 WAT       -32.6820  -69.1660   -3.3330 O         1 <0>         0.0000
  36347 WAT       -32.6820  -69.1660   -3.0830 O         1 <0>         0.0000
  36348 WAT       -32.6820  -69.1660   -2.8330 O         1 <0>         0.0000
  36349 WAT       -32.6820  -69.1660   -2.5830 O         1 <0>         0.0000
  36350 WAT       -32.6820  -69.1660   -2.3330 O         1 <0>         0.0000
  36351 WAT       -32.6820  -69.1660   -2.0830 O         1 <0>         0.0000
  36352 WAT       -32.6820  -69.1660   -1.8330 O         1 <0>         0.0000
  36353 WAT       -32.6820  -69.1660   -1.5830 O         1 <0>         0.0000
  36354 WAT       -32.6820  -69.1660   -1.3330 O         1 <0>         0.0000
  36355 WAT       -32.6820  -69.1660   -1.0830 O         1 <0>         0.0000
  36356 WAT       -32.6820  -69.1660   -0.8330 O         1 <0>         0.0000
  36357 WAT       -32.6820  -69.1660   -0.5830 O         1 <0>         0.0000
  36358 WAT       -32.6820  -69.1660   -0.3330 O         1 <0>         0.0000
  36359 WAT       -32.6820  -69.1660   -0.0830 O         1 <0>         0.0000
  36360 WAT       -32.6820  -68.9160   -9.8330 O         1 <0>         0.0000
  36361 WAT       -32.6820  -68.9160   -9.5830 O         1 <0>         0.0000
  36362 WAT       -32.6820  -68.9160   -9.3330 O         1 <0>         0.0000
  36363 WAT       -32.6820  -68.9160   -9.0830 O         1 <0>         0.0000
  36364 WAT       -32.6820  -68.9160   -8.8330 O         1 <0>         0.0000
  36365 WAT       -32.6820  -68.9160   -8.5830 O         1 <0>         0.0000
  36366 WAT       -32.6820  -68.9160   -8.3330 O         1 <0>         0.0000
  36367 WAT       -32.6820  -68.9160   -8.0830 O         1 <0>         0.0000
  36368 WAT       -32.6820  -68.9160   -7.8330 O         1 <0>         0.0000
  36369 WAT       -32.6820  -68.9160   -7.5830 O         1 <0>         0.0000
  36370 WAT       -32.6820  -68.9160   -7.3330 O         1 <0>         0.0000
  36371 WAT       -32.6820  -68.9160   -7.0830 O         1 <0>         0.0002
  36372 WAT       -32.6820  -68.9160   -6.8330 O         1 <0>         0.0006
  36373 WAT       -32.6820  -68.9160   -6.5830 O         1 <0>         0.0013
  36374 WAT       -32.6820  -68.9160   -6.3330 O         1 <0>         0.0017
  36375 WAT       -32.6820  -68.9160   -6.0830 O         1 <0>         0.0014
  36376 WAT       -32.6820  -68.9160   -5.8330 O         1 <0>         0.0007
  36377 WAT       -32.6820  -68.9160   -5.5830 O         1 <0>         0.0002
  36378 WAT       -32.6820  -68.9160   -5.3330 O         1 <0>         0.0000
  36379 WAT       -32.6820  -68.9160   -5.0830 O         1 <0>         0.0000
  36380 WAT       -32.6820  -68.9160   -4.8330 O         1 <0>         0.0000
  36381 WAT       -32.6820  -68.9160   -4.5830 O         1 <0>         0.0000
  36382 WAT       -32.6820  -68.9160   -4.3330 O         1 <0>         0.0000
  36383 WAT       -32.6820  -68.9160   -4.0830 O         1 <0>         0.0000
  36384 WAT       -32.6820  -68.9160   -3.8330 O         1 <0>         0.0000
  36385 WAT       -32.6820  -68.9160   -3.5830 O         1 <0>         0.0000
  36386 WAT       -32.6820  -68.9160   -3.3330 O         1 <0>         0.0000
  36387 WAT       -32.6820  -68.9160   -3.0830 O         1 <0>         0.0000
  36388 WAT       -32.6820  -68.9160   -2.8330 O         1 <0>         0.0000
  36389 WAT       -32.6820  -68.9160   -2.5830 O         1 <0>         0.0000
  36390 WAT       -32.6820  -68.9160   -2.3330 O         1 <0>         0.0000
  36391 WAT       -32.6820  -68.9160   -2.0830 O         1 <0>         0.0000
  36392 WAT       -32.6820  -68.9160   -1.8330 O         1 <0>         0.0000
  36393 WAT       -32.6820  -68.9160   -1.5830 O         1 <0>         0.0000
  36394 WAT       -32.6820  -68.9160   -1.3330 O         1 <0>         0.0000
  36395 WAT       -32.6820  -68.9160   -1.0830 O         1 <0>         0.0000
  36396 WAT       -32.6820  -68.9160   -0.8330 O         1 <0>         0.0000
  36397 WAT       -32.6820  -68.9160   -0.5830 O         1 <0>         0.0000
  36398 WAT       -32.6820  -68.9160   -0.3330 O         1 <0>         0.0000
  36399 WAT       -32.6820  -68.9160   -0.0830 O         1 <0>         0.0000
  36400 WAT       -32.4320  -77.4160   -9.8330 O         1 <0>         0.0000
  36401 WAT       -32.4320  -77.4160   -9.5830 O         1 <0>         0.0000
  36402 WAT       -32.4320  -77.4160   -9.3330 O         1 <0>         0.0000
  36403 WAT       -32.4320  -77.4160   -9.0830 O         1 <0>         0.0000
  36404 WAT       -32.4320  -77.4160   -8.8330 O         1 <0>         0.0000
  36405 WAT       -32.4320  -77.4160   -8.5830 O         1 <0>         0.0000
  36406 WAT       -32.4320  -77.4160   -8.3330 O         1 <0>         0.0000
  36407 WAT       -32.4320  -77.4160   -8.0830 O         1 <0>         0.0000
  36408 WAT       -32.4320  -77.4160   -7.8330 O         1 <0>         0.0000
  36409 WAT       -32.4320  -77.4160   -7.5830 O         1 <0>         0.0000
  36410 WAT       -32.4320  -77.4160   -7.3330 O         1 <0>         0.0000
  36411 WAT       -32.4320  -77.4160   -7.0830 O         1 <0>         0.0000
  36412 WAT       -32.4320  -77.4160   -6.8330 O         1 <0>         0.0000
  36413 WAT       -32.4320  -77.4160   -6.5830 O         1 <0>         0.0000
  36414 WAT       -32.4320  -77.4160   -6.3330 O         1 <0>         0.0000
  36415 WAT       -32.4320  -77.4160   -6.0830 O         1 <0>         0.0000
  36416 WAT       -32.4320  -77.4160   -5.8330 O         1 <0>         0.0000
  36417 WAT       -32.4320  -77.4160   -5.5830 O         1 <0>         0.0000
  36418 WAT       -32.4320  -77.4160   -5.3330 O         1 <0>         0.0000
  36419 WAT       -32.4320  -77.4160   -5.0830 O         1 <0>         0.0000
  36420 WAT       -32.4320  -77.4160   -4.8330 O         1 <0>         0.0000
  36421 WAT       -32.4320  -77.4160   -4.5830 O         1 <0>         0.0000
  36422 WAT       -32.4320  -77.4160   -4.3330 O         1 <0>         0.0000
  36423 WAT       -32.4320  -77.4160   -4.0830 O         1 <0>         0.0000
  36424 WAT       -32.4320  -77.4160   -3.8330 O         1 <0>         0.0000
  36425 WAT       -32.4320  -77.4160   -3.5830 O         1 <0>         0.0000
  36426 WAT       -32.4320  -77.4160   -3.3330 O         1 <0>         0.0000
  36427 WAT       -32.4320  -77.4160   -3.0830 O         1 <0>         0.0000
  36428 WAT       -32.4320  -77.4160   -2.8330 O         1 <0>         0.0000
  36429 WAT       -32.4320  -77.4160   -2.5830 O         1 <0>         0.0000
  36430 WAT       -32.4320  -77.4160   -2.3330 O         1 <0>         0.0000
  36431 WAT       -32.4320  -77.4160   -2.0830 O         1 <0>         0.0000
  36432 WAT       -32.4320  -77.4160   -1.8330 O         1 <0>         0.0000
  36433 WAT       -32.4320  -77.4160   -1.5830 O         1 <0>         0.0000
  36434 WAT       -32.4320  -77.4160   -1.3330 O         1 <0>         0.0000
  36435 WAT       -32.4320  -77.4160   -1.0830 O         1 <0>         0.0000
  36436 WAT       -32.4320  -77.4160   -0.8330 O         1 <0>         0.0000
  36437 WAT       -32.4320  -77.4160   -0.5830 O         1 <0>         0.0000
  36438 WAT       -32.4320  -77.4160   -0.3330 O         1 <0>         0.0000
  36439 WAT       -32.4320  -77.4160   -0.0830 O         1 <0>         0.0000
  36440 WAT       -32.4320  -77.1660   -9.8330 O         1 <0>         0.0000
  36441 WAT       -32.4320  -77.1660   -9.5830 O         1 <0>         0.0000
  36442 WAT       -32.4320  -77.1660   -9.3330 O         1 <0>         0.0000
  36443 WAT       -32.4320  -77.1660   -9.0830 O         1 <0>         0.0000
  36444 WAT       -32.4320  -77.1660   -8.8330 O         1 <0>         0.0000
  36445 WAT       -32.4320  -77.1660   -8.5830 O         1 <0>         0.0000
  36446 WAT       -32.4320  -77.1660   -8.3330 O         1 <0>         0.0000
  36447 WAT       -32.4320  -77.1660   -8.0830 O         1 <0>         0.0000
  36448 WAT       -32.4320  -77.1660   -7.8330 O         1 <0>         0.0000
  36449 WAT       -32.4320  -77.1660   -7.5830 O         1 <0>         0.0000
  36450 WAT       -32.4320  -77.1660   -7.3330 O         1 <0>         0.0000
  36451 WAT       -32.4320  -77.1660   -7.0830 O         1 <0>         0.0000
  36452 WAT       -32.4320  -77.1660   -6.8330 O         1 <0>         0.0000
  36453 WAT       -32.4320  -77.1660   -6.5830 O         1 <0>         0.0000
  36454 WAT       -32.4320  -77.1660   -6.3330 O         1 <0>         0.0000
  36455 WAT       -32.4320  -77.1660   -6.0830 O         1 <0>         0.0000
  36456 WAT       -32.4320  -77.1660   -5.8330 O         1 <0>         0.0000
  36457 WAT       -32.4320  -77.1660   -5.5830 O         1 <0>         0.0000
  36458 WAT       -32.4320  -77.1660   -5.3330 O         1 <0>         0.0000
  36459 WAT       -32.4320  -77.1660   -5.0830 O         1 <0>         0.0000
  36460 WAT       -32.4320  -77.1660   -4.8330 O         1 <0>         0.0000
  36461 WAT       -32.4320  -77.1660   -4.5830 O         1 <0>         0.0000
  36462 WAT       -32.4320  -77.1660   -4.3330 O         1 <0>         0.0000
  36463 WAT       -32.4320  -77.1660   -4.0830 O         1 <0>         0.0000
  36464 WAT       -32.4320  -77.1660   -3.8330 O         1 <0>         0.0000
  36465 WAT       -32.4320  -77.1660   -3.5830 O         1 <0>         0.0000
  36466 WAT       -32.4320  -77.1660   -3.3330 O         1 <0>         0.0000
  36467 WAT       -32.4320  -77.1660   -3.0830 O         1 <0>         0.0000
  36468 WAT       -32.4320  -77.1660   -2.8330 O         1 <0>         0.0000
  36469 WAT       -32.4320  -77.1660   -2.5830 O         1 <0>         0.0000
  36470 WAT       -32.4320  -77.1660   -2.3330 O         1 <0>         0.0000
  36471 WAT       -32.4320  -77.1660   -2.0830 O         1 <0>         0.0000
  36472 WAT       -32.4320  -77.1660   -1.8330 O         1 <0>         0.0000
  36473 WAT       -32.4320  -77.1660   -1.5830 O         1 <0>         0.0000
  36474 WAT       -32.4320  -77.1660   -1.3330 O         1 <0>         0.0000
  36475 WAT       -32.4320  -77.1660   -1.0830 O         1 <0>         0.0000
  36476 WAT       -32.4320  -77.1660   -0.8330 O         1 <0>         0.0000
  36477 WAT       -32.4320  -77.1660   -0.5830 O         1 <0>         0.0000
  36478 WAT       -32.4320  -77.1660   -0.3330 O         1 <0>         0.0000
  36479 WAT       -32.4320  -77.1660   -0.0830 O         1 <0>         0.0000
  36480 WAT       -32.4320  -76.9160   -9.8330 O         1 <0>         0.0000
  36481 WAT       -32.4320  -76.9160   -9.5830 O         1 <0>         0.0000
  36482 WAT       -32.4320  -76.9160   -9.3330 O         1 <0>         0.0000
  36483 WAT       -32.4320  -76.9160   -9.0830 O         1 <0>         0.0000
  36484 WAT       -32.4320  -76.9160   -8.8330 O         1 <0>         0.0000
  36485 WAT       -32.4320  -76.9160   -8.5830 O         1 <0>         0.0000
  36486 WAT       -32.4320  -76.9160   -8.3330 O         1 <0>         0.0000
  36487 WAT       -32.4320  -76.9160   -8.0830 O         1 <0>         0.0000
  36488 WAT       -32.4320  -76.9160   -7.8330 O         1 <0>         0.0000
  36489 WAT       -32.4320  -76.9160   -7.5830 O         1 <0>         0.0000
  36490 WAT       -32.4320  -76.9160   -7.3330 O         1 <0>         0.0000
  36491 WAT       -32.4320  -76.9160   -7.0830 O         1 <0>         0.0000
  36492 WAT       -32.4320  -76.9160   -6.8330 O         1 <0>         0.0000
  36493 WAT       -32.4320  -76.9160   -6.5830 O         1 <0>         0.0000
  36494 WAT       -32.4320  -76.9160   -6.3330 O         1 <0>         0.0000
  36495 WAT       -32.4320  -76.9160   -6.0830 O         1 <0>         0.0000
  36496 WAT       -32.4320  -76.9160   -5.8330 O         1 <0>         0.0000
  36497 WAT       -32.4320  -76.9160   -5.5830 O         1 <0>         0.0000
  36498 WAT       -32.4320  -76.9160   -5.3330 O         1 <0>         0.0000
  36499 WAT       -32.4320  -76.9160   -5.0830 O         1 <0>         0.0000
  36500 WAT       -32.4320  -76.9160   -4.8330 O         1 <0>         0.0000
  36501 WAT       -32.4320  -76.9160   -4.5830 O         1 <0>         0.0000
  36502 WAT       -32.4320  -76.9160   -4.3330 O         1 <0>         0.0000
  36503 WAT       -32.4320  -76.9160   -4.0830 O         1 <0>         0.0000
  36504 WAT       -32.4320  -76.9160   -3.8330 O         1 <0>         0.0000
  36505 WAT       -32.4320  -76.9160   -3.5830 O         1 <0>         0.0000
  36506 WAT       -32.4320  -76.9160   -3.3330 O         1 <0>         0.0000
  36507 WAT       -32.4320  -76.9160   -3.0830 O         1 <0>         0.0000
  36508 WAT       -32.4320  -76.9160   -2.8330 O         1 <0>         0.0000
  36509 WAT       -32.4320  -76.9160   -2.5830 O         1 <0>         0.0000
  36510 WAT       -32.4320  -76.9160   -2.3330 O         1 <0>         0.0000
  36511 WAT       -32.4320  -76.9160   -2.0830 O         1 <0>         0.0000
  36512 WAT       -32.4320  -76.9160   -1.8330 O         1 <0>         0.0000
  36513 WAT       -32.4320  -76.9160   -1.5830 O         1 <0>         0.0000
  36514 WAT       -32.4320  -76.9160   -1.3330 O         1 <0>         0.0000
  36515 WAT       -32.4320  -76.9160   -1.0830 O         1 <0>         0.0000
  36516 WAT       -32.4320  -76.9160   -0.8330 O         1 <0>         0.0000
  36517 WAT       -32.4320  -76.9160   -0.5830 O         1 <0>         0.0000
  36518 WAT       -32.4320  -76.9160   -0.3330 O         1 <0>         0.0000
  36519 WAT       -32.4320  -76.9160   -0.0830 O         1 <0>         0.0000
  36520 WAT       -32.4320  -76.6660   -9.8330 O         1 <0>         0.0000
  36521 WAT       -32.4320  -76.6660   -9.5830 O         1 <0>         0.0000
  36522 WAT       -32.4320  -76.6660   -9.3330 O         1 <0>         0.0000
  36523 WAT       -32.4320  -76.6660   -9.0830 O         1 <0>         0.0000
  36524 WAT       -32.4320  -76.6660   -8.8330 O         1 <0>         0.0000
  36525 WAT       -32.4320  -76.6660   -8.5830 O         1 <0>         0.0000
  36526 WAT       -32.4320  -76.6660   -8.3330 O         1 <0>         0.0000
  36527 WAT       -32.4320  -76.6660   -8.0830 O         1 <0>         0.0000
  36528 WAT       -32.4320  -76.6660   -7.8330 O         1 <0>         0.0000
  36529 WAT       -32.4320  -76.6660   -7.5830 O         1 <0>         0.0000
  36530 WAT       -32.4320  -76.6660   -7.3330 O         1 <0>         0.0000
  36531 WAT       -32.4320  -76.6660   -7.0830 O         1 <0>         0.0000
  36532 WAT       -32.4320  -76.6660   -6.8330 O         1 <0>         0.0000
  36533 WAT       -32.4320  -76.6660   -6.5830 O         1 <0>         0.0000
  36534 WAT       -32.4320  -76.6660   -6.3330 O         1 <0>         0.0000
  36535 WAT       -32.4320  -76.6660   -6.0830 O         1 <0>         0.0000
  36536 WAT       -32.4320  -76.6660   -5.8330 O         1 <0>         0.0000
  36537 WAT       -32.4320  -76.6660   -5.5830 O         1 <0>         0.0000
  36538 WAT       -32.4320  -76.6660   -5.3330 O         1 <0>         0.0000
  36539 WAT       -32.4320  -76.6660   -5.0830 O         1 <0>         0.0000
  36540 WAT       -32.4320  -76.6660   -4.8330 O         1 <0>         0.0000
  36541 WAT       -32.4320  -76.6660   -4.5830 O         1 <0>         0.0000
  36542 WAT       -32.4320  -76.6660   -4.3330 O         1 <0>         0.0000
  36543 WAT       -32.4320  -76.6660   -4.0830 O         1 <0>         0.0000
  36544 WAT       -32.4320  -76.6660   -3.8330 O         1 <0>         0.0000
  36545 WAT       -32.4320  -76.6660   -3.5830 O         1 <0>         0.0000
  36546 WAT       -32.4320  -76.6660   -3.3330 O         1 <0>         0.0000
  36547 WAT       -32.4320  -76.6660   -3.0830 O         1 <0>         0.0000
  36548 WAT       -32.4320  -76.6660   -2.8330 O         1 <0>         0.0000
  36549 WAT       -32.4320  -76.6660   -2.5830 O         1 <0>         0.0000
  36550 WAT       -32.4320  -76.6660   -2.3330 O         1 <0>         0.0000
  36551 WAT       -32.4320  -76.6660   -2.0830 O         1 <0>         0.0000
  36552 WAT       -32.4320  -76.6660   -1.8330 O         1 <0>         0.0000
  36553 WAT       -32.4320  -76.6660   -1.5830 O         1 <0>         0.0000
  36554 WAT       -32.4320  -76.6660   -1.3330 O         1 <0>         0.0000
  36555 WAT       -32.4320  -76.6660   -1.0830 O         1 <0>         0.0000
  36556 WAT       -32.4320  -76.6660   -0.8330 O         1 <0>         0.0000
  36557 WAT       -32.4320  -76.6660   -0.5830 O         1 <0>         0.0000
  36558 WAT       -32.4320  -76.6660   -0.3330 O         1 <0>         0.0000
  36559 WAT       -32.4320  -76.6660   -0.0830 O         1 <0>         0.0000
  36560 WAT       -32.4320  -76.4160   -9.8330 O         1 <0>         0.0000
  36561 WAT       -32.4320  -76.4160   -9.5830 O         1 <0>         0.0000
  36562 WAT       -32.4320  -76.4160   -9.3330 O         1 <0>         0.0000
  36563 WAT       -32.4320  -76.4160   -9.0830 O         1 <0>         0.0000
  36564 WAT       -32.4320  -76.4160   -8.8330 O         1 <0>         0.0000
  36565 WAT       -32.4320  -76.4160   -8.5830 O         1 <0>         0.0000
  36566 WAT       -32.4320  -76.4160   -8.3330 O         1 <0>         0.0000
  36567 WAT       -32.4320  -76.4160   -8.0830 O         1 <0>         0.0000
  36568 WAT       -32.4320  -76.4160   -7.8330 O         1 <0>         0.0000
  36569 WAT       -32.4320  -76.4160   -7.5830 O         1 <0>         0.0000
  36570 WAT       -32.4320  -76.4160   -7.3330 O         1 <0>         0.0000
  36571 WAT       -32.4320  -76.4160   -7.0830 O         1 <0>         0.0000
  36572 WAT       -32.4320  -76.4160   -6.8330 O         1 <0>         0.0000
  36573 WAT       -32.4320  -76.4160   -6.5830 O         1 <0>         0.0000
  36574 WAT       -32.4320  -76.4160   -6.3330 O         1 <0>         0.0000
  36575 WAT       -32.4320  -76.4160   -6.0830 O         1 <0>         0.0000
  36576 WAT       -32.4320  -76.4160   -5.8330 O         1 <0>         0.0000
  36577 WAT       -32.4320  -76.4160   -5.5830 O         1 <0>         0.0000
  36578 WAT       -32.4320  -76.4160   -5.3330 O         1 <0>         0.0000
  36579 WAT       -32.4320  -76.4160   -5.0830 O         1 <0>         0.0000
  36580 WAT       -32.4320  -76.4160   -4.8330 O         1 <0>         0.0000
  36581 WAT       -32.4320  -76.4160   -4.5830 O         1 <0>         0.0000
  36582 WAT       -32.4320  -76.4160   -4.3330 O         1 <0>         0.0000
  36583 WAT       -32.4320  -76.4160   -4.0830 O         1 <0>         0.0000
  36584 WAT       -32.4320  -76.4160   -3.8330 O         1 <0>         0.0000
  36585 WAT       -32.4320  -76.4160   -3.5830 O         1 <0>         0.0000
  36586 WAT       -32.4320  -76.4160   -3.3330 O         1 <0>         0.0000
  36587 WAT       -32.4320  -76.4160   -3.0830 O         1 <0>         0.0000
  36588 WAT       -32.4320  -76.4160   -2.8330 O         1 <0>         0.0000
  36589 WAT       -32.4320  -76.4160   -2.5830 O         1 <0>         0.0000
  36590 WAT       -32.4320  -76.4160   -2.3330 O         1 <0>         0.0000
  36591 WAT       -32.4320  -76.4160   -2.0830 O         1 <0>         0.0000
  36592 WAT       -32.4320  -76.4160   -1.8330 O         1 <0>         0.0000
  36593 WAT       -32.4320  -76.4160   -1.5830 O         1 <0>         0.0000
  36594 WAT       -32.4320  -76.4160   -1.3330 O         1 <0>         0.0000
  36595 WAT       -32.4320  -76.4160   -1.0830 O         1 <0>         0.0000
  36596 WAT       -32.4320  -76.4160   -0.8330 O         1 <0>         0.0000
  36597 WAT       -32.4320  -76.4160   -0.5830 O         1 <0>         0.0000
  36598 WAT       -32.4320  -76.4160   -0.3330 O         1 <0>         0.0000
  36599 WAT       -32.4320  -76.4160   -0.0830 O         1 <0>         0.0000
  36600 WAT       -32.4320  -76.1660   -9.8330 O         1 <0>         0.0000
  36601 WAT       -32.4320  -76.1660   -9.5830 O         1 <0>         0.0000
  36602 WAT       -32.4320  -76.1660   -9.3330 O         1 <0>         0.0000
  36603 WAT       -32.4320  -76.1660   -9.0830 O         1 <0>         0.0000
  36604 WAT       -32.4320  -76.1660   -8.8330 O         1 <0>         0.0000
  36605 WAT       -32.4320  -76.1660   -8.5830 O         1 <0>         0.0000
  36606 WAT       -32.4320  -76.1660   -8.3330 O         1 <0>         0.0000
  36607 WAT       -32.4320  -76.1660   -8.0830 O         1 <0>         0.0000
  36608 WAT       -32.4320  -76.1660   -7.8330 O         1 <0>         0.0000
  36609 WAT       -32.4320  -76.1660   -7.5830 O         1 <0>         0.0000
  36610 WAT       -32.4320  -76.1660   -7.3330 O         1 <0>         0.0000
  36611 WAT       -32.4320  -76.1660   -7.0830 O         1 <0>         0.0000
  36612 WAT       -32.4320  -76.1660   -6.8330 O         1 <0>         0.0000
  36613 WAT       -32.4320  -76.1660   -6.5830 O         1 <0>         0.0000
  36614 WAT       -32.4320  -76.1660   -6.3330 O         1 <0>         0.0000
  36615 WAT       -32.4320  -76.1660   -6.0830 O         1 <0>         0.0000
  36616 WAT       -32.4320  -76.1660   -5.8330 O         1 <0>         0.0001
  36617 WAT       -32.4320  -76.1660   -5.5830 O         1 <0>         0.0001
  36618 WAT       -32.4320  -76.1660   -5.3330 O         1 <0>         0.0001
  36619 WAT       -32.4320  -76.1660   -5.0830 O         1 <0>         0.0000
  36620 WAT       -32.4320  -76.1660   -4.8330 O         1 <0>         0.0000
  36621 WAT       -32.4320  -76.1660   -4.5830 O         1 <0>         0.0000
  36622 WAT       -32.4320  -76.1660   -4.3330 O         1 <0>         0.0000
  36623 WAT       -32.4320  -76.1660   -4.0830 O         1 <0>         0.0000
  36624 WAT       -32.4320  -76.1660   -3.8330 O         1 <0>         0.0000
  36625 WAT       -32.4320  -76.1660   -3.5830 O         1 <0>         0.0000
  36626 WAT       -32.4320  -76.1660   -3.3330 O         1 <0>         0.0000
  36627 WAT       -32.4320  -76.1660   -3.0830 O         1 <0>         0.0000
  36628 WAT       -32.4320  -76.1660   -2.8330 O         1 <0>         0.0000
  36629 WAT       -32.4320  -76.1660   -2.5830 O         1 <0>         0.0000
  36630 WAT       -32.4320  -76.1660   -2.3330 O         1 <0>         0.0000
  36631 WAT       -32.4320  -76.1660   -2.0830 O         1 <0>         0.0000
  36632 WAT       -32.4320  -76.1660   -1.8330 O         1 <0>         0.0000
  36633 WAT       -32.4320  -76.1660   -1.5830 O         1 <0>         0.0000
  36634 WAT       -32.4320  -76.1660   -1.3330 O         1 <0>         0.0000
  36635 WAT       -32.4320  -76.1660   -1.0830 O         1 <0>         0.0000
  36636 WAT       -32.4320  -76.1660   -0.8330 O         1 <0>         0.0000
  36637 WAT       -32.4320  -76.1660   -0.5830 O         1 <0>         0.0000
  36638 WAT       -32.4320  -76.1660   -0.3330 O         1 <0>         0.0000
  36639 WAT       -32.4320  -76.1660   -0.0830 O         1 <0>         0.0000
  36640 WAT       -32.4320  -75.9160   -9.8330 O         1 <0>         0.0000
  36641 WAT       -32.4320  -75.9160   -9.5830 O         1 <0>         0.0000
  36642 WAT       -32.4320  -75.9160   -9.3330 O         1 <0>         0.0000
  36643 WAT       -32.4320  -75.9160   -9.0830 O         1 <0>         0.0000
  36644 WAT       -32.4320  -75.9160   -8.8330 O         1 <0>         0.0000
  36645 WAT       -32.4320  -75.9160   -8.5830 O         1 <0>         0.0000
  36646 WAT       -32.4320  -75.9160   -8.3330 O         1 <0>         0.0000
  36647 WAT       -32.4320  -75.9160   -8.0830 O         1 <0>         0.0000
  36648 WAT       -32.4320  -75.9160   -7.8330 O         1 <0>         0.0000
  36649 WAT       -32.4320  -75.9160   -7.5830 O         1 <0>         0.0000
  36650 WAT       -32.4320  -75.9160   -7.3330 O         1 <0>         0.0000
  36651 WAT       -32.4320  -75.9160   -7.0830 O         1 <0>         0.0000
  36652 WAT       -32.4320  -75.9160   -6.8330 O         1 <0>         0.0000
  36653 WAT       -32.4320  -75.9160   -6.5830 O         1 <0>         0.0000
  36654 WAT       -32.4320  -75.9160   -6.3330 O         1 <0>         0.0001
  36655 WAT       -32.4320  -75.9160   -6.0830 O         1 <0>         0.0003
  36656 WAT       -32.4320  -75.9160   -5.8330 O         1 <0>         0.0006
  36657 WAT       -32.4320  -75.9160   -5.5830 O         1 <0>         0.0008
  36658 WAT       -32.4320  -75.9160   -5.3330 O         1 <0>         0.0007
  36659 WAT       -32.4320  -75.9160   -5.0830 O         1 <0>         0.0003
  36660 WAT       -32.4320  -75.9160   -4.8330 O         1 <0>         0.0001
  36661 WAT       -32.4320  -75.9160   -4.5830 O         1 <0>         0.0000
  36662 WAT       -32.4320  -75.9160   -4.3330 O         1 <0>         0.0000
  36663 WAT       -32.4320  -75.9160   -4.0830 O         1 <0>         0.0000
  36664 WAT       -32.4320  -75.9160   -3.8330 O         1 <0>         0.0000
  36665 WAT       -32.4320  -75.9160   -3.5830 O         1 <0>         0.0000
  36666 WAT       -32.4320  -75.9160   -3.3330 O         1 <0>         0.0000
  36667 WAT       -32.4320  -75.9160   -3.0830 O         1 <0>         0.0000
  36668 WAT       -32.4320  -75.9160   -2.8330 O         1 <0>         0.0000
  36669 WAT       -32.4320  -75.9160   -2.5830 O         1 <0>         0.0000
  36670 WAT       -32.4320  -75.9160   -2.3330 O         1 <0>         0.0000
  36671 WAT       -32.4320  -75.9160   -2.0830 O         1 <0>         0.0000
  36672 WAT       -32.4320  -75.9160   -1.8330 O         1 <0>         0.0000
  36673 WAT       -32.4320  -75.9160   -1.5830 O         1 <0>         0.0000
  36674 WAT       -32.4320  -75.9160   -1.3330 O         1 <0>         0.0000
  36675 WAT       -32.4320  -75.9160   -1.0830 O         1 <0>         0.0000
  36676 WAT       -32.4320  -75.9160   -0.8330 O         1 <0>         0.0000
  36677 WAT       -32.4320  -75.9160   -0.5830 O         1 <0>         0.0000
  36678 WAT       -32.4320  -75.9160   -0.3330 O         1 <0>         0.0000
  36679 WAT       -32.4320  -75.9160   -0.0830 O         1 <0>         0.0000
  36680 WAT       -32.4320  -75.6660   -9.8330 O         1 <0>         0.0000
  36681 WAT       -32.4320  -75.6660   -9.5830 O         1 <0>         0.0000
  36682 WAT       -32.4320  -75.6660   -9.3330 O         1 <0>         0.0000
  36683 WAT       -32.4320  -75.6660   -9.0830 O         1 <0>         0.0000
  36684 WAT       -32.4320  -75.6660   -8.8330 O         1 <0>         0.0000
  36685 WAT       -32.4320  -75.6660   -8.5830 O         1 <0>         0.0000
  36686 WAT       -32.4320  -75.6660   -8.3330 O         1 <0>         0.0000
  36687 WAT       -32.4320  -75.6660   -8.0830 O         1 <0>         0.0000
  36688 WAT       -32.4320  -75.6660   -7.8330 O         1 <0>         0.0000
  36689 WAT       -32.4320  -75.6660   -7.5830 O         1 <0>         0.0000
  36690 WAT       -32.4320  -75.6660   -7.3330 O         1 <0>         0.0000
  36691 WAT       -32.4320  -75.6660   -7.0830 O         1 <0>         0.0000
  36692 WAT       -32.4320  -75.6660   -6.8330 O         1 <0>         0.0000
  36693 WAT       -32.4320  -75.6660   -6.5830 O         1 <0>         0.0001
  36694 WAT       -32.4320  -75.6660   -6.3330 O         1 <0>         0.0004
  36695 WAT       -32.4320  -75.6660   -6.0830 O         1 <0>         0.0014
  36696 WAT       -32.4320  -75.6660   -5.8330 O         1 <0>         0.0029
  36697 WAT       -32.4320  -75.6660   -5.5830 O         1 <0>         0.0039
  36698 WAT       -32.4320  -75.6660   -5.3330 O         1 <0>         0.0036
  36699 WAT       -32.4320  -75.6660   -5.0830 O         1 <0>         0.0021
  36700 WAT       -32.4320  -75.6660   -4.8330 O         1 <0>         0.0008
  36701 WAT       -32.4320  -75.6660   -4.5830 O         1 <0>         0.0002
  36702 WAT       -32.4320  -75.6660   -4.3330 O         1 <0>         0.0000
  36703 WAT       -32.4320  -75.6660   -4.0830 O         1 <0>         0.0000
  36704 WAT       -32.4320  -75.6660   -3.8330 O         1 <0>         0.0000
  36705 WAT       -32.4320  -75.6660   -3.5830 O         1 <0>         0.0000
  36706 WAT       -32.4320  -75.6660   -3.3330 O         1 <0>         0.0000
  36707 WAT       -32.4320  -75.6660   -3.0830 O         1 <0>         0.0000
  36708 WAT       -32.4320  -75.6660   -2.8330 O         1 <0>         0.0000
  36709 WAT       -32.4320  -75.6660   -2.5830 O         1 <0>         0.0000
  36710 WAT       -32.4320  -75.6660   -2.3330 O         1 <0>         0.0000
  36711 WAT       -32.4320  -75.6660   -2.0830 O         1 <0>         0.0000
  36712 WAT       -32.4320  -75.6660   -1.8330 O         1 <0>         0.0000
  36713 WAT       -32.4320  -75.6660   -1.5830 O         1 <0>         0.0000
  36714 WAT       -32.4320  -75.6660   -1.3330 O         1 <0>         0.0000
  36715 WAT       -32.4320  -75.6660   -1.0830 O         1 <0>         0.0000
  36716 WAT       -32.4320  -75.6660   -0.8330 O         1 <0>         0.0000
  36717 WAT       -32.4320  -75.6660   -0.5830 O         1 <0>         0.0000
  36718 WAT       -32.4320  -75.6660   -0.3330 O         1 <0>         0.0000
  36719 WAT       -32.4320  -75.6660   -0.0830 O         1 <0>         0.0000
  36720 WAT       -32.4320  -75.4160   -9.8330 O         1 <0>         0.0000
  36721 WAT       -32.4320  -75.4160   -9.5830 O         1 <0>         0.0000
  36722 WAT       -32.4320  -75.4160   -9.3330 O         1 <0>         0.0000
  36723 WAT       -32.4320  -75.4160   -9.0830 O         1 <0>         0.0000
  36724 WAT       -32.4320  -75.4160   -8.8330 O         1 <0>         0.0000
  36725 WAT       -32.4320  -75.4160   -8.5830 O         1 <0>         0.0000
  36726 WAT       -32.4320  -75.4160   -8.3330 O         1 <0>         0.0000
  36727 WAT       -32.4320  -75.4160   -8.0830 O         1 <0>         0.0000
  36728 WAT       -32.4320  -75.4160   -7.8330 O         1 <0>         0.0000
  36729 WAT       -32.4320  -75.4160   -7.5830 O         1 <0>         0.0000
  36730 WAT       -32.4320  -75.4160   -7.3330 O         1 <0>         0.0000
  36731 WAT       -32.4320  -75.4160   -7.0830 O         1 <0>         0.0000
  36732 WAT       -32.4320  -75.4160   -6.8330 O         1 <0>         0.0000
  36733 WAT       -32.4320  -75.4160   -6.5830 O         1 <0>         0.0003
  36734 WAT       -32.4320  -75.4160   -6.3330 O         1 <0>         0.0015
  36735 WAT       -32.4320  -75.4160   -6.0830 O         1 <0>         0.0048
  36736 WAT       -32.4320  -75.4160   -5.8330 O         1 <0>         0.0098
  36737 WAT       -32.4320  -75.4160   -5.5830 O         1 <0>         0.0136
  36738 WAT       -32.4320  -75.4160   -5.3330 O         1 <0>         0.0128
  36739 WAT       -32.4320  -75.4160   -5.0830 O         1 <0>         0.0083
  36740 WAT       -32.4320  -75.4160   -4.8330 O         1 <0>         0.0037
  36741 WAT       -32.4320  -75.4160   -4.5830 O         1 <0>         0.0011
  36742 WAT       -32.4320  -75.4160   -4.3330 O         1 <0>         0.0002
  36743 WAT       -32.4320  -75.4160   -4.0830 O         1 <0>         0.0000
  36744 WAT       -32.4320  -75.4160   -3.8330 O         1 <0>         0.0000
  36745 WAT       -32.4320  -75.4160   -3.5830 O         1 <0>         0.0000
  36746 WAT       -32.4320  -75.4160   -3.3330 O         1 <0>         0.0000
  36747 WAT       -32.4320  -75.4160   -3.0830 O         1 <0>         0.0000
  36748 WAT       -32.4320  -75.4160   -2.8330 O         1 <0>         0.0000
  36749 WAT       -32.4320  -75.4160   -2.5830 O         1 <0>         0.0000
  36750 WAT       -32.4320  -75.4160   -2.3330 O         1 <0>         0.0000
  36751 WAT       -32.4320  -75.4160   -2.0830 O         1 <0>         0.0000
  36752 WAT       -32.4320  -75.4160   -1.8330 O         1 <0>         0.0000
  36753 WAT       -32.4320  -75.4160   -1.5830 O         1 <0>         0.0000
  36754 WAT       -32.4320  -75.4160   -1.3330 O         1 <0>         0.0000
  36755 WAT       -32.4320  -75.4160   -1.0830 O         1 <0>         0.0000
  36756 WAT       -32.4320  -75.4160   -0.8330 O         1 <0>         0.0000
  36757 WAT       -32.4320  -75.4160   -0.5830 O         1 <0>         0.0000
  36758 WAT       -32.4320  -75.4160   -0.3330 O         1 <0>         0.0000
  36759 WAT       -32.4320  -75.4160   -0.0830 O         1 <0>         0.0000
  36760 WAT       -32.4320  -75.1660   -9.8330 O         1 <0>         0.0000
  36761 WAT       -32.4320  -75.1660   -9.5830 O         1 <0>         0.0000
  36762 WAT       -32.4320  -75.1660   -9.3330 O         1 <0>         0.0000
  36763 WAT       -32.4320  -75.1660   -9.0830 O         1 <0>         0.0000
  36764 WAT       -32.4320  -75.1660   -8.8330 O         1 <0>         0.0000
  36765 WAT       -32.4320  -75.1660   -8.5830 O         1 <0>         0.0000
  36766 WAT       -32.4320  -75.1660   -8.3330 O         1 <0>         0.0000
  36767 WAT       -32.4320  -75.1660   -8.0830 O         1 <0>         0.0000
  36768 WAT       -32.4320  -75.1660   -7.8330 O         1 <0>         0.0000
  36769 WAT       -32.4320  -75.1660   -7.5830 O         1 <0>         0.0000
  36770 WAT       -32.4320  -75.1660   -7.3330 O         1 <0>         0.0000
  36771 WAT       -32.4320  -75.1660   -7.0830 O         1 <0>         0.0000
  36772 WAT       -32.4320  -75.1660   -6.8330 O         1 <0>         0.0001
  36773 WAT       -32.4320  -75.1660   -6.5830 O         1 <0>         0.0009
  36774 WAT       -32.4320  -75.1660   -6.3330 O         1 <0>         0.0043
  36775 WAT       -32.4320  -75.1660   -6.0830 O         1 <0>         0.0126
  36776 WAT       -32.4320  -75.1660   -5.8330 O         1 <0>         0.0250
  36777 WAT       -32.4320  -75.1660   -5.5830 O         1 <0>         0.0345
  36778 WAT       -32.4320  -75.1660   -5.3330 O         1 <0>         0.0335
  36779 WAT       -32.4320  -75.1660   -5.0830 O         1 <0>         0.0231
  36780 WAT       -32.4320  -75.1660   -4.8330 O         1 <0>         0.0115
  36781 WAT       -32.4320  -75.1660   -4.5830 O         1 <0>         0.0042
  36782 WAT       -32.4320  -75.1660   -4.3330 O         1 <0>         0.0012
  36783 WAT       -32.4320  -75.1660   -4.0830 O         1 <0>         0.0003
  36784 WAT       -32.4320  -75.1660   -3.8330 O         1 <0>         0.0001
  36785 WAT       -32.4320  -75.1660   -3.5830 O         1 <0>         0.0000
  36786 WAT       -32.4320  -75.1660   -3.3330 O         1 <0>         0.0000
  36787 WAT       -32.4320  -75.1660   -3.0830 O         1 <0>         0.0000
  36788 WAT       -32.4320  -75.1660   -2.8330 O         1 <0>         0.0000
  36789 WAT       -32.4320  -75.1660   -2.5830 O         1 <0>         0.0000
  36790 WAT       -32.4320  -75.1660   -2.3330 O         1 <0>         0.0000
  36791 WAT       -32.4320  -75.1660   -2.0830 O         1 <0>         0.0000
  36792 WAT       -32.4320  -75.1660   -1.8330 O         1 <0>         0.0000
  36793 WAT       -32.4320  -75.1660   -1.5830 O         1 <0>         0.0000
  36794 WAT       -32.4320  -75.1660   -1.3330 O         1 <0>         0.0000
  36795 WAT       -32.4320  -75.1660   -1.0830 O         1 <0>         0.0000
  36796 WAT       -32.4320  -75.1660   -0.8330 O         1 <0>         0.0000
  36797 WAT       -32.4320  -75.1660   -0.5830 O         1 <0>         0.0000
  36798 WAT       -32.4320  -75.1660   -0.3330 O         1 <0>         0.0000
  36799 WAT       -32.4320  -75.1660   -0.0830 O         1 <0>         0.0000
  36800 WAT       -32.4320  -74.9160   -9.8330 O         1 <0>         0.0000
  36801 WAT       -32.4320  -74.9160   -9.5830 O         1 <0>         0.0000
  36802 WAT       -32.4320  -74.9160   -9.3330 O         1 <0>         0.0000
  36803 WAT       -32.4320  -74.9160   -9.0830 O         1 <0>         0.0000
  36804 WAT       -32.4320  -74.9160   -8.8330 O         1 <0>         0.0000
  36805 WAT       -32.4320  -74.9160   -8.5830 O         1 <0>         0.0000
  36806 WAT       -32.4320  -74.9160   -8.3330 O         1 <0>         0.0000
  36807 WAT       -32.4320  -74.9160   -8.0830 O         1 <0>         0.0000
  36808 WAT       -32.4320  -74.9160   -7.8330 O         1 <0>         0.0000
  36809 WAT       -32.4320  -74.9160   -7.5830 O         1 <0>         0.0000
  36810 WAT       -32.4320  -74.9160   -7.3330 O         1 <0>         0.0000
  36811 WAT       -32.4320  -74.9160   -7.0830 O         1 <0>         0.0000
  36812 WAT       -32.4320  -74.9160   -6.8330 O         1 <0>         0.0003
  36813 WAT       -32.4320  -74.9160   -6.5830 O         1 <0>         0.0023
  36814 WAT       -32.4320  -74.9160   -6.3330 O         1 <0>         0.0095
  36815 WAT       -32.4320  -74.9160   -6.0830 O         1 <0>         0.0256
  36816 WAT       -32.4320  -74.9160   -5.8330 O         1 <0>         0.0484
  36817 WAT       -32.4320  -74.9160   -5.5830 O         1 <0>         0.0659
  36818 WAT       -32.4320  -74.9160   -5.3330 O         1 <0>         0.0649
  36819 WAT       -32.4320  -74.9160   -5.0830 O         1 <0>         0.0466
  36820 WAT       -32.4320  -74.9160   -4.8330 O         1 <0>         0.0247
  36821 WAT       -32.4320  -74.9160   -4.5830 O         1 <0>         0.0099
  36822 WAT       -32.4320  -74.9160   -4.3330 O         1 <0>         0.0031
  36823 WAT       -32.4320  -74.9160   -4.0830 O         1 <0>         0.0008
  36824 WAT       -32.4320  -74.9160   -3.8330 O         1 <0>         0.0003
  36825 WAT       -32.4320  -74.9160   -3.5830 O         1 <0>         0.0002
  36826 WAT       -32.4320  -74.9160   -3.3330 O         1 <0>         0.0003
  36827 WAT       -32.4320  -74.9160   -3.0830 O         1 <0>         0.0004
  36828 WAT       -32.4320  -74.9160   -2.8330 O         1 <0>         0.0005
  36829 WAT       -32.4320  -74.9160   -2.5830 O         1 <0>         0.0004
  36830 WAT       -32.4320  -74.9160   -2.3330 O         1 <0>         0.0002
  36831 WAT       -32.4320  -74.9160   -2.0830 O         1 <0>         0.0001
  36832 WAT       -32.4320  -74.9160   -1.8330 O         1 <0>         0.0000
  36833 WAT       -32.4320  -74.9160   -1.5830 O         1 <0>         0.0000
  36834 WAT       -32.4320  -74.9160   -1.3330 O         1 <0>         0.0000
  36835 WAT       -32.4320  -74.9160   -1.0830 O         1 <0>         0.0000
  36836 WAT       -32.4320  -74.9160   -0.8330 O         1 <0>         0.0000
  36837 WAT       -32.4320  -74.9160   -0.5830 O         1 <0>         0.0000
  36838 WAT       -32.4320  -74.9160   -0.3330 O         1 <0>         0.0000
  36839 WAT       -32.4320  -74.9160   -0.0830 O         1 <0>         0.0000
  36840 WAT       -32.4320  -74.6660   -9.8330 O         1 <0>         0.0000
  36841 WAT       -32.4320  -74.6660   -9.5830 O         1 <0>         0.0000
  36842 WAT       -32.4320  -74.6660   -9.3330 O         1 <0>         0.0000
  36843 WAT       -32.4320  -74.6660   -9.0830 O         1 <0>         0.0000
  36844 WAT       -32.4320  -74.6660   -8.8330 O         1 <0>         0.0000
  36845 WAT       -32.4320  -74.6660   -8.5830 O         1 <0>         0.0000
  36846 WAT       -32.4320  -74.6660   -8.3330 O         1 <0>         0.0000
  36847 WAT       -32.4320  -74.6660   -8.0830 O         1 <0>         0.0000
  36848 WAT       -32.4320  -74.6660   -7.8330 O         1 <0>         0.0000
  36849 WAT       -32.4320  -74.6660   -7.5830 O         1 <0>         0.0000
  36850 WAT       -32.4320  -74.6660   -7.3330 O         1 <0>         0.0000
  36851 WAT       -32.4320  -74.6660   -7.0830 O         1 <0>         0.0001
  36852 WAT       -32.4320  -74.6660   -6.8330 O         1 <0>         0.0010
  36853 WAT       -32.4320  -74.6660   -6.5830 O         1 <0>         0.0050
  36854 WAT       -32.4320  -74.6660   -6.3330 O         1 <0>         0.0171
  36855 WAT       -32.4320  -74.6660   -6.0830 O         1 <0>         0.0412
  36856 WAT       -32.4320  -74.6660   -5.8330 O         1 <0>         0.0729
  36857 WAT       -32.4320  -74.6660   -5.5830 O         1 <0>         0.0965
  36858 WAT       -32.4320  -74.6660   -5.3330 O         1 <0>         0.0952
  36859 WAT       -32.4320  -74.6660   -5.0830 O         1 <0>         0.0700
  36860 WAT       -32.4320  -74.6660   -4.8330 O         1 <0>         0.0387
  36861 WAT       -32.4320  -74.6660   -4.5830 O         1 <0>         0.0165
  36862 WAT       -32.4320  -74.6660   -4.3330 O         1 <0>         0.0056
  36863 WAT       -32.4320  -74.6660   -4.0830 O         1 <0>         0.0017
  36864 WAT       -32.4320  -74.6660   -3.8330 O         1 <0>         0.0008
  36865 WAT       -32.4320  -74.6660   -3.5830 O         1 <0>         0.0013
  36866 WAT       -32.4320  -74.6660   -3.3330 O         1 <0>         0.0028
  36867 WAT       -32.4320  -74.6660   -3.0830 O         1 <0>         0.0046
  36868 WAT       -32.4320  -74.6660   -2.8330 O         1 <0>         0.0050
  36869 WAT       -32.4320  -74.6660   -2.5830 O         1 <0>         0.0037
  36870 WAT       -32.4320  -74.6660   -2.3330 O         1 <0>         0.0018
  36871 WAT       -32.4320  -74.6660   -2.0830 O         1 <0>         0.0005
  36872 WAT       -32.4320  -74.6660   -1.8330 O         1 <0>         0.0001
  36873 WAT       -32.4320  -74.6660   -1.5830 O         1 <0>         0.0000
  36874 WAT       -32.4320  -74.6660   -1.3330 O         1 <0>         0.0000
  36875 WAT       -32.4320  -74.6660   -1.0830 O         1 <0>         0.0000
  36876 WAT       -32.4320  -74.6660   -0.8330 O         1 <0>         0.0000
  36877 WAT       -32.4320  -74.6660   -0.5830 O         1 <0>         0.0000
  36878 WAT       -32.4320  -74.6660   -0.3330 O         1 <0>         0.0000
  36879 WAT       -32.4320  -74.6660   -0.0830 O         1 <0>         0.0000
  36880 WAT       -32.4320  -74.4160   -9.8330 O         1 <0>         0.0000
  36881 WAT       -32.4320  -74.4160   -9.5830 O         1 <0>         0.0000
  36882 WAT       -32.4320  -74.4160   -9.3330 O         1 <0>         0.0000
  36883 WAT       -32.4320  -74.4160   -9.0830 O         1 <0>         0.0000
  36884 WAT       -32.4320  -74.4160   -8.8330 O         1 <0>         0.0000
  36885 WAT       -32.4320  -74.4160   -8.5830 O         1 <0>         0.0000
  36886 WAT       -32.4320  -74.4160   -8.3330 O         1 <0>         0.0000
  36887 WAT       -32.4320  -74.4160   -8.0830 O         1 <0>         0.0000
  36888 WAT       -32.4320  -74.4160   -7.8330 O         1 <0>         0.0000
  36889 WAT       -32.4320  -74.4160   -7.5830 O         1 <0>         0.0000
  36890 WAT       -32.4320  -74.4160   -7.3330 O         1 <0>         0.0001
  36891 WAT       -32.4320  -74.4160   -7.0830 O         1 <0>         0.0006
  36892 WAT       -32.4320  -74.4160   -6.8330 O         1 <0>         0.0028
  36893 WAT       -32.4320  -74.4160   -6.5830 O         1 <0>         0.0097
  36894 WAT       -32.4320  -74.4160   -6.3330 O         1 <0>         0.0262
  36895 WAT       -32.4320  -74.4160   -6.0830 O         1 <0>         0.0549
  36896 WAT       -32.4320  -74.4160   -5.8330 O         1 <0>         0.0892
  36897 WAT       -32.4320  -74.4160   -5.5830 O         1 <0>         0.1121
  36898 WAT       -32.4320  -74.4160   -5.3330 O         1 <0>         0.1083
  36899 WAT       -32.4320  -74.4160   -5.0830 O         1 <0>         0.0801
  36900 WAT       -32.4320  -74.4160   -4.8330 O         1 <0>         0.0455
  36901 WAT       -32.4320  -74.4160   -4.5830 O         1 <0>         0.0203
  36902 WAT       -32.4320  -74.4160   -4.3330 O         1 <0>         0.0074
  36903 WAT       -32.4320  -74.4160   -4.0830 O         1 <0>         0.0028
  36904 WAT       -32.4320  -74.4160   -3.8330 O         1 <0>         0.0029
  36905 WAT       -32.4320  -74.4160   -3.5830 O         1 <0>         0.0075
  36906 WAT       -32.4320  -74.4160   -3.3330 O         1 <0>         0.0163
  36907 WAT       -32.4320  -74.4160   -3.0830 O         1 <0>         0.0240
  36908 WAT       -32.4320  -74.4160   -2.8330 O         1 <0>         0.0241
  36909 WAT       -32.4320  -74.4160   -2.5830 O         1 <0>         0.0166
  36910 WAT       -32.4320  -74.4160   -2.3330 O         1 <0>         0.0077
  36911 WAT       -32.4320  -74.4160   -2.0830 O         1 <0>         0.0023
  36912 WAT       -32.4320  -74.4160   -1.8330 O         1 <0>         0.0004
  36913 WAT       -32.4320  -74.4160   -1.5830 O         1 <0>         0.0000
  36914 WAT       -32.4320  -74.4160   -1.3330 O         1 <0>         0.0000
  36915 WAT       -32.4320  -74.4160   -1.0830 O         1 <0>         0.0000
  36916 WAT       -32.4320  -74.4160   -0.8330 O         1 <0>         0.0000
  36917 WAT       -32.4320  -74.4160   -0.5830 O         1 <0>         0.0000
  36918 WAT       -32.4320  -74.4160   -0.3330 O         1 <0>         0.0000
  36919 WAT       -32.4320  -74.4160   -0.0830 O         1 <0>         0.0000
  36920 WAT       -32.4320  -74.1660   -9.8330 O         1 <0>         0.0000
  36921 WAT       -32.4320  -74.1660   -9.5830 O         1 <0>         0.0000
  36922 WAT       -32.4320  -74.1660   -9.3330 O         1 <0>         0.0000
  36923 WAT       -32.4320  -74.1660   -9.0830 O         1 <0>         0.0000
  36924 WAT       -32.4320  -74.1660   -8.8330 O         1 <0>         0.0000
  36925 WAT       -32.4320  -74.1660   -8.5830 O         1 <0>         0.0000
  36926 WAT       -32.4320  -74.1660   -8.3330 O         1 <0>         0.0000
  36927 WAT       -32.4320  -74.1660   -8.0830 O         1 <0>         0.0000
  36928 WAT       -32.4320  -74.1660   -7.8330 O         1 <0>         0.0000
  36929 WAT       -32.4320  -74.1660   -7.5830 O         1 <0>         0.0000
  36930 WAT       -32.4320  -74.1660   -7.3330 O         1 <0>         0.0004
  36931 WAT       -32.4320  -74.1660   -7.0830 O         1 <0>         0.0018
  36932 WAT       -32.4320  -74.1660   -6.8330 O         1 <0>         0.0063
  36933 WAT       -32.4320  -74.1660   -6.5830 O         1 <0>         0.0166
  36934 WAT       -32.4320  -74.1660   -6.3330 O         1 <0>         0.0358
  36935 WAT       -32.4320  -74.1660   -6.0830 O         1 <0>         0.0635
  36936 WAT       -32.4320  -74.1660   -5.8330 O         1 <0>         0.0918
  36937 WAT       -32.4320  -74.1660   -5.5830 O         1 <0>         0.1067
  36938 WAT       -32.4320  -74.1660   -5.3330 O         1 <0>         0.0985
  36939 WAT       -32.4320  -74.1660   -5.0830 O         1 <0>         0.0717
  36940 WAT       -32.4320  -74.1660   -4.8330 O         1 <0>         0.0412
  36941 WAT       -32.4320  -74.1660   -4.5830 O         1 <0>         0.0188
  36942 WAT       -32.4320  -74.1660   -4.3330 O         1 <0>         0.0073
  36943 WAT       -32.4320  -74.1660   -4.0830 O         1 <0>         0.0041
  36944 WAT       -32.4320  -74.1660   -3.8330 O         1 <0>         0.0093
  36945 WAT       -32.4320  -74.1660   -3.5830 O         1 <0>         0.0269
  36946 WAT       -32.4320  -74.1660   -3.3330 O         1 <0>         0.0542
  36947 WAT       -32.4320  -74.1660   -3.0830 O         1 <0>         0.0749
  36948 WAT       -32.4320  -74.1660   -2.8330 O         1 <0>         0.0711
  36949 WAT       -32.4320  -74.1660   -2.5830 O         1 <0>         0.0462
  36950 WAT       -32.4320  -74.1660   -2.3330 O         1 <0>         0.0202
  36951 WAT       -32.4320  -74.1660   -2.0830 O         1 <0>         0.0056
  36952 WAT       -32.4320  -74.1660   -1.8330 O         1 <0>         0.0009
  36953 WAT       -32.4320  -74.1660   -1.5830 O         1 <0>         0.0001
  36954 WAT       -32.4320  -74.1660   -1.3330 O         1 <0>         0.0000
  36955 WAT       -32.4320  -74.1660   -1.0830 O         1 <0>         0.0000
  36956 WAT       -32.4320  -74.1660   -0.8330 O         1 <0>         0.0000
  36957 WAT       -32.4320  -74.1660   -0.5830 O         1 <0>         0.0000
  36958 WAT       -32.4320  -74.1660   -0.3330 O         1 <0>         0.0000
  36959 WAT       -32.4320  -74.1660   -0.0830 O         1 <0>         0.0000
  36960 WAT       -32.4320  -73.9160   -9.8330 O         1 <0>         0.0000
  36961 WAT       -32.4320  -73.9160   -9.5830 O         1 <0>         0.0000
  36962 WAT       -32.4320  -73.9160   -9.3330 O         1 <0>         0.0000
  36963 WAT       -32.4320  -73.9160   -9.0830 O         1 <0>         0.0000
  36964 WAT       -32.4320  -73.9160   -8.8330 O         1 <0>         0.0000
  36965 WAT       -32.4320  -73.9160   -8.5830 O         1 <0>         0.0000
  36966 WAT       -32.4320  -73.9160   -8.3330 O         1 <0>         0.0000
  36967 WAT       -32.4320  -73.9160   -8.0830 O         1 <0>         0.0000
  36968 WAT       -32.4320  -73.9160   -7.8330 O         1 <0>         0.0000
  36969 WAT       -32.4320  -73.9160   -7.5830 O         1 <0>         0.0001
  36970 WAT       -32.4320  -73.9160   -7.3330 O         1 <0>         0.0009
  36971 WAT       -32.4320  -73.9160   -7.0830 O         1 <0>         0.0040
  36972 WAT       -32.4320  -73.9160   -6.8330 O         1 <0>         0.0114
  36973 WAT       -32.4320  -73.9160   -6.5830 O         1 <0>         0.0249
  36974 WAT       -32.4320  -73.9160   -6.3330 O         1 <0>         0.0438
  36975 WAT       -32.4320  -73.9160   -6.0830 O         1 <0>         0.0650
  36976 WAT       -32.4320  -73.9160   -5.8330 O         1 <0>         0.0815
  36977 WAT       -32.4320  -73.9160   -5.5830 O         1 <0>         0.0854
  36978 WAT       -32.4320  -73.9160   -5.3330 O         1 <0>         0.0736
  36979 WAT       -32.4320  -73.9160   -5.0830 O         1 <0>         0.0515
  36980 WAT       -32.4320  -73.9160   -4.8330 O         1 <0>         0.0291
  36981 WAT       -32.4320  -73.9160   -4.5830 O         1 <0>         0.0134
  36982 WAT       -32.4320  -73.9160   -4.3330 O         1 <0>         0.0056
  36983 WAT       -32.4320  -73.9160   -4.0830 O         1 <0>         0.0064
  36984 WAT       -32.4320  -73.9160   -3.8330 O         1 <0>         0.0218
  36985 WAT       -32.4320  -73.9160   -3.5830 O         1 <0>         0.0617
  36986 WAT       -32.4320  -73.9160   -3.3330 O         1 <0>         0.1191
  36987 WAT       -32.4320  -73.9160   -3.0830 O         1 <0>         0.1575
  36988 WAT       -32.4320  -73.9160   -2.8330 O         1 <0>         0.1419
  36989 WAT       -32.4320  -73.9160   -2.5830 O         1 <0>         0.0868
  36990 WAT       -32.4320  -73.9160   -2.3330 O         1 <0>         0.0357
  36991 WAT       -32.4320  -73.9160   -2.0830 O         1 <0>         0.0093
  36992 WAT       -32.4320  -73.9160   -1.8330 O         1 <0>         0.0013
  36993 WAT       -32.4320  -73.9160   -1.5830 O         1 <0>         0.0001
  36994 WAT       -32.4320  -73.9160   -1.3330 O         1 <0>         0.0000
  36995 WAT       -32.4320  -73.9160   -1.0830 O         1 <0>         0.0000
  36996 WAT       -32.4320  -73.9160   -0.8330 O         1 <0>         0.0000
  36997 WAT       -32.4320  -73.9160   -0.5830 O         1 <0>         0.0000
  36998 WAT       -32.4320  -73.9160   -0.3330 O         1 <0>         0.0000
  36999 WAT       -32.4320  -73.9160   -0.0830 O         1 <0>         0.0000
  37000 WAT       -32.4320  -73.6660   -9.8330 O         1 <0>         0.0000
  37001 WAT       -32.4320  -73.6660   -9.5830 O         1 <0>         0.0000
  37002 WAT       -32.4320  -73.6660   -9.3330 O         1 <0>         0.0000
  37003 WAT       -32.4320  -73.6660   -9.0830 O         1 <0>         0.0000
  37004 WAT       -32.4320  -73.6660   -8.8330 O         1 <0>         0.0000
  37005 WAT       -32.4320  -73.6660   -8.5830 O         1 <0>         0.0000
  37006 WAT       -32.4320  -73.6660   -8.3330 O         1 <0>         0.0000
  37007 WAT       -32.4320  -73.6660   -8.0830 O         1 <0>         0.0000
  37008 WAT       -32.4320  -73.6660   -7.8330 O         1 <0>         0.0000
  37009 WAT       -32.4320  -73.6660   -7.5830 O         1 <0>         0.0003
  37010 WAT       -32.4320  -73.6660   -7.3330 O         1 <0>         0.0017
  37011 WAT       -32.4320  -73.6660   -7.0830 O         1 <0>         0.0063
  37012 WAT       -32.4320  -73.6660   -6.8330 O         1 <0>         0.0161
  37013 WAT       -32.4320  -73.6660   -6.5830 O         1 <0>         0.0305
  37014 WAT       -32.4320  -73.6660   -6.3330 O         1 <0>         0.0462
  37015 WAT       -32.4320  -73.6660   -6.0830 O         1 <0>         0.0584
  37016 WAT       -32.4320  -73.6660   -5.8330 O         1 <0>         0.0632
  37017 WAT       -32.4320  -73.6660   -5.5830 O         1 <0>         0.0589
  37018 WAT       -32.4320  -73.6660   -5.3330 O         1 <0>         0.0464
  37019 WAT       -32.4320  -73.6660   -5.0830 O         1 <0>         0.0304
  37020 WAT       -32.4320  -73.6660   -4.8330 O         1 <0>         0.0164
  37021 WAT       -32.4320  -73.6660   -4.5830 O         1 <0>         0.0073
  37022 WAT       -32.4320  -73.6660   -4.3330 O         1 <0>         0.0038
  37023 WAT       -32.4320  -73.6660   -4.0830 O         1 <0>         0.0090
  37024 WAT       -32.4320  -73.6660   -3.8330 O         1 <0>         0.0352
  37025 WAT       -32.4320  -73.6660   -3.5830 O         1 <0>         0.0970
  37026 WAT       -32.4320  -73.6660   -3.3330 O         1 <0>         0.1817
  37027 WAT       -32.4320  -73.6660   -3.0830 O         1 <0>         0.2309
  37028 WAT       -32.4320  -73.6660   -2.8330 O         1 <0>         0.1979
  37029 WAT       -32.4320  -73.6660   -2.5830 O         1 <0>         0.1141
  37030 WAT       -32.4320  -73.6660   -2.3330 O         1 <0>         0.0438
  37031 WAT       -32.4320  -73.6660   -2.0830 O         1 <0>         0.0104
  37032 WAT       -32.4320  -73.6660   -1.8330 O         1 <0>         0.0012
  37033 WAT       -32.4320  -73.6660   -1.5830 O         1 <0>         0.0001
  37034 WAT       -32.4320  -73.6660   -1.3330 O         1 <0>         0.0000
  37035 WAT       -32.4320  -73.6660   -1.0830 O         1 <0>         0.0000
  37036 WAT       -32.4320  -73.6660   -0.8330 O         1 <0>         0.0000
  37037 WAT       -32.4320  -73.6660   -0.5830 O         1 <0>         0.0000
  37038 WAT       -32.4320  -73.6660   -0.3330 O         1 <0>         0.0000
  37039 WAT       -32.4320  -73.6660   -0.0830 O         1 <0>         0.0000
  37040 WAT       -32.4320  -73.4160   -9.8330 O         1 <0>         0.0000
  37041 WAT       -32.4320  -73.4160   -9.5830 O         1 <0>         0.0000
  37042 WAT       -32.4320  -73.4160   -9.3330 O         1 <0>         0.0000
  37043 WAT       -32.4320  -73.4160   -9.0830 O         1 <0>         0.0000
  37044 WAT       -32.4320  -73.4160   -8.8330 O         1 <0>         0.0000
  37045 WAT       -32.4320  -73.4160   -8.5830 O         1 <0>         0.0000
  37046 WAT       -32.4320  -73.4160   -8.3330 O         1 <0>         0.0000
  37047 WAT       -32.4320  -73.4160   -8.0830 O         1 <0>         0.0000
  37048 WAT       -32.4320  -73.4160   -7.8330 O         1 <0>         0.0000
  37049 WAT       -32.4320  -73.4160   -7.5830 O         1 <0>         0.0004
  37050 WAT       -32.4320  -73.4160   -7.3330 O         1 <0>         0.0022
  37051 WAT       -32.4320  -73.4160   -7.0830 O         1 <0>         0.0074
  37052 WAT       -32.4320  -73.4160   -6.8330 O         1 <0>         0.0172
  37053 WAT       -32.4320  -73.4160   -6.5830 O         1 <0>         0.0297
  37054 WAT       -32.4320  -73.4160   -6.3330 O         1 <0>         0.0402
  37055 WAT       -32.4320  -73.4160   -6.0830 O         1 <0>         0.0451
  37056 WAT       -32.4320  -73.4160   -5.8330 O         1 <0>         0.0430
  37057 WAT       -32.4320  -73.4160   -5.5830 O         1 <0>         0.0355
  37058 WAT       -32.4320  -73.4160   -5.3330 O         1 <0>         0.0253
  37059 WAT       -32.4320  -73.4160   -5.0830 O         1 <0>         0.0153
  37060 WAT       -32.4320  -73.4160   -4.8330 O         1 <0>         0.0077
  37061 WAT       -32.4320  -73.4160   -4.5830 O         1 <0>         0.0034
  37062 WAT       -32.4320  -73.4160   -4.3330 O         1 <0>         0.0026
  37063 WAT       -32.4320  -73.4160   -4.0830 O         1 <0>         0.0100
  37064 WAT       -32.4320  -73.4160   -3.8330 O         1 <0>         0.0404
  37065 WAT       -32.4320  -73.4160   -3.5830 O         1 <0>         0.1088
  37066 WAT       -32.4320  -73.4160   -3.3330 O         1 <0>         0.1975
  37067 WAT       -32.4320  -73.4160   -3.0830 O         1 <0>         0.2413
  37068 WAT       -32.4320  -73.4160   -2.8330 O         1 <0>         0.1972
  37069 WAT       -32.4320  -73.4160   -2.5830 O         1 <0>         0.1074
  37070 WAT       -32.4320  -73.4160   -2.3330 O         1 <0>         0.0383
  37071 WAT       -32.4320  -73.4160   -2.0830 O         1 <0>         0.0080
  37072 WAT       -32.4320  -73.4160   -1.8330 O         1 <0>         0.0007
  37073 WAT       -32.4320  -73.4160   -1.5830 O         1 <0>         0.0000
  37074 WAT       -32.4320  -73.4160   -1.3330 O         1 <0>         0.0000
  37075 WAT       -32.4320  -73.4160   -1.0830 O         1 <0>         0.0000
  37076 WAT       -32.4320  -73.4160   -0.8330 O         1 <0>         0.0000
  37077 WAT       -32.4320  -73.4160   -0.5830 O         1 <0>         0.0000
  37078 WAT       -32.4320  -73.4160   -0.3330 O         1 <0>         0.0000
  37079 WAT       -32.4320  -73.4160   -0.0830 O         1 <0>         0.0000
  37080 WAT       -32.4320  -73.1660   -9.8330 O         1 <0>         0.0000
  37081 WAT       -32.4320  -73.1660   -9.5830 O         1 <0>         0.0000
  37082 WAT       -32.4320  -73.1660   -9.3330 O         1 <0>         0.0000
  37083 WAT       -32.4320  -73.1660   -9.0830 O         1 <0>         0.0000
  37084 WAT       -32.4320  -73.1660   -8.8330 O         1 <0>         0.0000
  37085 WAT       -32.4320  -73.1660   -8.5830 O         1 <0>         0.0000
  37086 WAT       -32.4320  -73.1660   -8.3330 O         1 <0>         0.0000
  37087 WAT       -32.4320  -73.1660   -8.0830 O         1 <0>         0.0000
  37088 WAT       -32.4320  -73.1660   -7.8330 O         1 <0>         0.0000
  37089 WAT       -32.4320  -73.1660   -7.5830 O         1 <0>         0.0004
  37090 WAT       -32.4320  -73.1660   -7.3330 O         1 <0>         0.0022
  37091 WAT       -32.4320  -73.1660   -7.0830 O         1 <0>         0.0068
  37092 WAT       -32.4320  -73.1660   -6.8330 O         1 <0>         0.0144
  37093 WAT       -32.4320  -73.1660   -6.5830 O         1 <0>         0.0225
  37094 WAT       -32.4320  -73.1660   -6.3330 O         1 <0>         0.0280
  37095 WAT       -32.4320  -73.1660   -6.0830 O         1 <0>         0.0289
  37096 WAT       -32.4320  -73.1660   -5.8330 O         1 <0>         0.0251
  37097 WAT       -32.4320  -73.1660   -5.5830 O         1 <0>         0.0187
  37098 WAT       -32.4320  -73.1660   -5.3330 O         1 <0>         0.0121
  37099 WAT       -32.4320  -73.1660   -5.0830 O         1 <0>         0.0068
  37100 WAT       -32.4320  -73.1660   -4.8330 O         1 <0>         0.0032
  37101 WAT       -32.4320  -73.1660   -4.5830 O         1 <0>         0.0015
  37102 WAT       -32.4320  -73.1660   -4.3330 O         1 <0>         0.0018
  37103 WAT       -32.4320  -73.1660   -4.0830 O         1 <0>         0.0087
  37104 WAT       -32.4320  -73.1660   -3.8330 O         1 <0>         0.0349
  37105 WAT       -32.4320  -73.1660   -3.5830 O         1 <0>         0.0917
  37106 WAT       -32.4320  -73.1660   -3.3330 O         1 <0>         0.1610
  37107 WAT       -32.4320  -73.1660   -3.0830 O         1 <0>         0.1891
  37108 WAT       -32.4320  -73.1660   -2.8330 O         1 <0>         0.1476
  37109 WAT       -32.4320  -73.1660   -2.5830 O         1 <0>         0.0759
  37110 WAT       -32.4320  -73.1660   -2.3330 O         1 <0>         0.0248
  37111 WAT       -32.4320  -73.1660   -2.0830 O         1 <0>         0.0043
  37112 WAT       -32.4320  -73.1660   -1.8330 O         1 <0>         0.0003
  37113 WAT       -32.4320  -73.1660   -1.5830 O         1 <0>         0.0000
  37114 WAT       -32.4320  -73.1660   -1.3330 O         1 <0>         0.0000
  37115 WAT       -32.4320  -73.1660   -1.0830 O         1 <0>         0.0000
  37116 WAT       -32.4320  -73.1660   -0.8330 O         1 <0>         0.0000
  37117 WAT       -32.4320  -73.1660   -0.5830 O         1 <0>         0.0000
  37118 WAT       -32.4320  -73.1660   -0.3330 O         1 <0>         0.0000
  37119 WAT       -32.4320  -73.1660   -0.0830 O         1 <0>         0.0000
  37120 WAT       -32.4320  -72.9160   -9.8330 O         1 <0>         0.0000
  37121 WAT       -32.4320  -72.9160   -9.5830 O         1 <0>         0.0000
  37122 WAT       -32.4320  -72.9160   -9.3330 O         1 <0>         0.0000
  37123 WAT       -32.4320  -72.9160   -9.0830 O         1 <0>         0.0000
  37124 WAT       -32.4320  -72.9160   -8.8330 O         1 <0>         0.0000
  37125 WAT       -32.4320  -72.9160   -8.5830 O         1 <0>         0.0000
  37126 WAT       -32.4320  -72.9160   -8.3330 O         1 <0>         0.0000
  37127 WAT       -32.4320  -72.9160   -8.0830 O         1 <0>         0.0000
  37128 WAT       -32.4320  -72.9160   -7.8330 O         1 <0>         0.0000
  37129 WAT       -32.4320  -72.9160   -7.5830 O         1 <0>         0.0004
  37130 WAT       -32.4320  -72.9160   -7.3330 O         1 <0>         0.0018
  37131 WAT       -32.4320  -72.9160   -7.0830 O         1 <0>         0.0051
  37132 WAT       -32.4320  -72.9160   -6.8330 O         1 <0>         0.0097
  37133 WAT       -32.4320  -72.9160   -6.5830 O         1 <0>         0.0137
  37134 WAT       -32.4320  -72.9160   -6.3330 O         1 <0>         0.0154
  37135 WAT       -32.4320  -72.9160   -6.0830 O         1 <0>         0.0148
  37136 WAT       -32.4320  -72.9160   -5.8330 O         1 <0>         0.0122
  37137 WAT       -32.4320  -72.9160   -5.5830 O         1 <0>         0.0086
  37138 WAT       -32.4320  -72.9160   -5.3330 O         1 <0>         0.0052
  37139 WAT       -32.4320  -72.9160   -5.0830 O         1 <0>         0.0028
  37140 WAT       -32.4320  -72.9160   -4.8330 O         1 <0>         0.0014
  37141 WAT       -32.4320  -72.9160   -4.5830 O         1 <0>         0.0008
  37142 WAT       -32.4320  -72.9160   -4.3330 O         1 <0>         0.0014
  37143 WAT       -32.4320  -72.9160   -4.0830 O         1 <0>         0.0064
  37144 WAT       -32.4320  -72.9160   -3.8330 O         1 <0>         0.0247
  37145 WAT       -32.4320  -72.9160   -3.5830 O         1 <0>         0.0635
  37146 WAT       -32.4320  -72.9160   -3.3330 O         1 <0>         0.1081
  37147 WAT       -32.4320  -72.9160   -3.0830 O         1 <0>         0.1224
  37148 WAT       -32.4320  -72.9160   -2.8330 O         1 <0>         0.0911
  37149 WAT       -32.4320  -72.9160   -2.5830 O         1 <0>         0.0440
  37150 WAT       -32.4320  -72.9160   -2.3330 O         1 <0>         0.0129
  37151 WAT       -32.4320  -72.9160   -2.0830 O         1 <0>         0.0018
  37152 WAT       -32.4320  -72.9160   -1.8330 O         1 <0>         0.0001
  37153 WAT       -32.4320  -72.9160   -1.5830 O         1 <0>         0.0000
  37154 WAT       -32.4320  -72.9160   -1.3330 O         1 <0>         0.0000
  37155 WAT       -32.4320  -72.9160   -1.0830 O         1 <0>         0.0000
  37156 WAT       -32.4320  -72.9160   -0.8330 O         1 <0>         0.0000
  37157 WAT       -32.4320  -72.9160   -0.5830 O         1 <0>         0.0000
  37158 WAT       -32.4320  -72.9160   -0.3330 O         1 <0>         0.0000
  37159 WAT       -32.4320  -72.9160   -0.0830 O         1 <0>         0.0000
  37160 WAT       -32.4320  -72.6660   -9.8330 O         1 <0>         0.0000
  37161 WAT       -32.4320  -72.6660   -9.5830 O         1 <0>         0.0000
  37162 WAT       -32.4320  -72.6660   -9.3330 O         1 <0>         0.0000
  37163 WAT       -32.4320  -72.6660   -9.0830 O         1 <0>         0.0000
  37164 WAT       -32.4320  -72.6660   -8.8330 O         1 <0>         0.0000
  37165 WAT       -32.4320  -72.6660   -8.5830 O         1 <0>         0.0000
  37166 WAT       -32.4320  -72.6660   -8.3330 O         1 <0>         0.0000
  37167 WAT       -32.4320  -72.6660   -8.0830 O         1 <0>         0.0000
  37168 WAT       -32.4320  -72.6660   -7.8330 O         1 <0>         0.0000
  37169 WAT       -32.4320  -72.6660   -7.5830 O         1 <0>         0.0003
  37170 WAT       -32.4320  -72.6660   -7.3330 O         1 <0>         0.0013
  37171 WAT       -32.4320  -72.6660   -7.0830 O         1 <0>         0.0034
  37172 WAT       -32.4320  -72.6660   -6.8330 O         1 <0>         0.0057
  37173 WAT       -32.4320  -72.6660   -6.5830 O         1 <0>         0.0070
  37174 WAT       -32.4320  -72.6660   -6.3330 O         1 <0>         0.0069
  37175 WAT       -32.4320  -72.6660   -6.0830 O         1 <0>         0.0061
  37176 WAT       -32.4320  -72.6660   -5.8330 O         1 <0>         0.0049
  37177 WAT       -32.4320  -72.6660   -5.5830 O         1 <0>         0.0035
  37178 WAT       -32.4320  -72.6660   -5.3330 O         1 <0>         0.0022
  37179 WAT       -32.4320  -72.6660   -5.0830 O         1 <0>         0.0013
  37180 WAT       -32.4320  -72.6660   -4.8330 O         1 <0>         0.0007
  37181 WAT       -32.4320  -72.6660   -4.5830 O         1 <0>         0.0006
  37182 WAT       -32.4320  -72.6660   -4.3330 O         1 <0>         0.0011
  37183 WAT       -32.4320  -72.6660   -4.0830 O         1 <0>         0.0042
  37184 WAT       -32.4320  -72.6660   -3.8330 O         1 <0>         0.0155
  37185 WAT       -32.4320  -72.6660   -3.5830 O         1 <0>         0.0389
  37186 WAT       -32.4320  -72.6660   -3.3330 O         1 <0>         0.0647
  37187 WAT       -32.4320  -72.6660   -3.0830 O         1 <0>         0.0709
  37188 WAT       -32.4320  -72.6660   -2.8330 O         1 <0>         0.0507
  37189 WAT       -32.4320  -72.6660   -2.5830 O         1 <0>         0.0230
  37190 WAT       -32.4320  -72.6660   -2.3330 O         1 <0>         0.0062
  37191 WAT       -32.4320  -72.6660   -2.0830 O         1 <0>         0.0007
  37192 WAT       -32.4320  -72.6660   -1.8330 O         1 <0>         0.0000
  37193 WAT       -32.4320  -72.6660   -1.5830 O         1 <0>         0.0000
  37194 WAT       -32.4320  -72.6660   -1.3330 O         1 <0>         0.0000
  37195 WAT       -32.4320  -72.6660   -1.0830 O         1 <0>         0.0000
  37196 WAT       -32.4320  -72.6660   -0.8330 O         1 <0>         0.0000
  37197 WAT       -32.4320  -72.6660   -0.5830 O         1 <0>         0.0000
  37198 WAT       -32.4320  -72.6660   -0.3330 O         1 <0>         0.0000
  37199 WAT       -32.4320  -72.6660   -0.0830 O         1 <0>         0.0000
  37200 WAT       -32.4320  -72.4160   -9.8330 O         1 <0>         0.0000
  37201 WAT       -32.4320  -72.4160   -9.5830 O         1 <0>         0.0000
  37202 WAT       -32.4320  -72.4160   -9.3330 O         1 <0>         0.0000
  37203 WAT       -32.4320  -72.4160   -9.0830 O         1 <0>         0.0000
  37204 WAT       -32.4320  -72.4160   -8.8330 O         1 <0>         0.0000
  37205 WAT       -32.4320  -72.4160   -8.5830 O         1 <0>         0.0000
  37206 WAT       -32.4320  -72.4160   -8.3330 O         1 <0>         0.0000
  37207 WAT       -32.4320  -72.4160   -8.0830 O         1 <0>         0.0000
  37208 WAT       -32.4320  -72.4160   -7.8330 O         1 <0>         0.0000
  37209 WAT       -32.4320  -72.4160   -7.5830 O         1 <0>         0.0002
  37210 WAT       -32.4320  -72.4160   -7.3330 O         1 <0>         0.0009
  37211 WAT       -32.4320  -72.4160   -7.0830 O         1 <0>         0.0021
  37212 WAT       -32.4320  -72.4160   -6.8330 O         1 <0>         0.0032
  37213 WAT       -32.4320  -72.4160   -6.5830 O         1 <0>         0.0034
  37214 WAT       -32.4320  -72.4160   -6.3330 O         1 <0>         0.0030
  37215 WAT       -32.4320  -72.4160   -6.0830 O         1 <0>         0.0026
  37216 WAT       -32.4320  -72.4160   -5.8330 O         1 <0>         0.0024
  37217 WAT       -32.4320  -72.4160   -5.5830 O         1 <0>         0.0020
  37218 WAT       -32.4320  -72.4160   -5.3330 O         1 <0>         0.0015
  37219 WAT       -32.4320  -72.4160   -5.0830 O         1 <0>         0.0010
  37220 WAT       -32.4320  -72.4160   -4.8330 O         1 <0>         0.0006
  37221 WAT       -32.4320  -72.4160   -4.5830 O         1 <0>         0.0005
  37222 WAT       -32.4320  -72.4160   -4.3330 O         1 <0>         0.0008
  37223 WAT       -32.4320  -72.4160   -4.0830 O         1 <0>         0.0024
  37224 WAT       -32.4320  -72.4160   -3.8330 O         1 <0>         0.0083
  37225 WAT       -32.4320  -72.4160   -3.5830 O         1 <0>         0.0204
  37226 WAT       -32.4320  -72.4160   -3.3330 O         1 <0>         0.0333
  37227 WAT       -32.4320  -72.4160   -3.0830 O         1 <0>         0.0356
  37228 WAT       -32.4320  -72.4160   -2.8330 O         1 <0>         0.0246
  37229 WAT       -32.4320  -72.4160   -2.5830 O         1 <0>         0.0108
  37230 WAT       -32.4320  -72.4160   -2.3330 O         1 <0>         0.0028
  37231 WAT       -32.4320  -72.4160   -2.0830 O         1 <0>         0.0003
  37232 WAT       -32.4320  -72.4160   -1.8330 O         1 <0>         0.0000
  37233 WAT       -32.4320  -72.4160   -1.5830 O         1 <0>         0.0000
  37234 WAT       -32.4320  -72.4160   -1.3330 O         1 <0>         0.0000
  37235 WAT       -32.4320  -72.4160   -1.0830 O         1 <0>         0.0000
  37236 WAT       -32.4320  -72.4160   -0.8330 O         1 <0>         0.0000
  37237 WAT       -32.4320  -72.4160   -0.5830 O         1 <0>         0.0000
  37238 WAT       -32.4320  -72.4160   -0.3330 O         1 <0>         0.0000
  37239 WAT       -32.4320  -72.4160   -0.0830 O         1 <0>         0.0000
  37240 WAT       -32.4320  -72.1660   -9.8330 O         1 <0>         0.0000
  37241 WAT       -32.4320  -72.1660   -9.5830 O         1 <0>         0.0000
  37242 WAT       -32.4320  -72.1660   -9.3330 O         1 <0>         0.0000
  37243 WAT       -32.4320  -72.1660   -9.0830 O         1 <0>         0.0000
  37244 WAT       -32.4320  -72.1660   -8.8330 O         1 <0>         0.0000
  37245 WAT       -32.4320  -72.1660   -8.5830 O         1 <0>         0.0000
  37246 WAT       -32.4320  -72.1660   -8.3330 O         1 <0>         0.0000
  37247 WAT       -32.4320  -72.1660   -8.0830 O         1 <0>         0.0000
  37248 WAT       -32.4320  -72.1660   -7.8330 O         1 <0>         0.0000
  37249 WAT       -32.4320  -72.1660   -7.5830 O         1 <0>         0.0001
  37250 WAT       -32.4320  -72.1660   -7.3330 O         1 <0>         0.0005
  37251 WAT       -32.4320  -72.1660   -7.0830 O         1 <0>         0.0012
  37252 WAT       -32.4320  -72.1660   -6.8330 O         1 <0>         0.0018
  37253 WAT       -32.4320  -72.1660   -6.5830 O         1 <0>         0.0021
  37254 WAT       -32.4320  -72.1660   -6.3330 O         1 <0>         0.0025
  37255 WAT       -32.4320  -72.1660   -6.0830 O         1 <0>         0.0032
  37256 WAT       -32.4320  -72.1660   -5.8330 O         1 <0>         0.0035
  37257 WAT       -32.4320  -72.1660   -5.5830 O         1 <0>         0.0029
  37258 WAT       -32.4320  -72.1660   -5.3330 O         1 <0>         0.0019
  37259 WAT       -32.4320  -72.1660   -5.0830 O         1 <0>         0.0010
  37260 WAT       -32.4320  -72.1660   -4.8330 O         1 <0>         0.0005
  37261 WAT       -32.4320  -72.1660   -4.5830 O         1 <0>         0.0004
  37262 WAT       -32.4320  -72.1660   -4.3330 O         1 <0>         0.0004
  37263 WAT       -32.4320  -72.1660   -4.0830 O         1 <0>         0.0010
  37264 WAT       -32.4320  -72.1660   -3.8330 O         1 <0>         0.0034
  37265 WAT       -32.4320  -72.1660   -3.5830 O         1 <0>         0.0082
  37266 WAT       -32.4320  -72.1660   -3.3330 O         1 <0>         0.0132
  37267 WAT       -32.4320  -72.1660   -3.0830 O         1 <0>         0.0138
  37268 WAT       -32.4320  -72.1660   -2.8330 O         1 <0>         0.0093
  37269 WAT       -32.4320  -72.1660   -2.5830 O         1 <0>         0.0039
  37270 WAT       -32.4320  -72.1660   -2.3330 O         1 <0>         0.0009
  37271 WAT       -32.4320  -72.1660   -2.0830 O         1 <0>         0.0001
  37272 WAT       -32.4320  -72.1660   -1.8330 O         1 <0>         0.0000
  37273 WAT       -32.4320  -72.1660   -1.5830 O         1 <0>         0.0000
  37274 WAT       -32.4320  -72.1660   -1.3330 O         1 <0>         0.0000
  37275 WAT       -32.4320  -72.1660   -1.0830 O         1 <0>         0.0000
  37276 WAT       -32.4320  -72.1660   -0.8330 O         1 <0>         0.0000
  37277 WAT       -32.4320  -72.1660   -0.5830 O         1 <0>         0.0000
  37278 WAT       -32.4320  -72.1660   -0.3330 O         1 <0>         0.0000
  37279 WAT       -32.4320  -72.1660   -0.0830 O         1 <0>         0.0000
  37280 WAT       -32.4320  -71.9160   -9.8330 O         1 <0>         0.0000
  37281 WAT       -32.4320  -71.9160   -9.5830 O         1 <0>         0.0000
  37282 WAT       -32.4320  -71.9160   -9.3330 O         1 <0>         0.0000
  37283 WAT       -32.4320  -71.9160   -9.0830 O         1 <0>         0.0000
  37284 WAT       -32.4320  -71.9160   -8.8330 O         1 <0>         0.0000
  37285 WAT       -32.4320  -71.9160   -8.5830 O         1 <0>         0.0000
  37286 WAT       -32.4320  -71.9160   -8.3330 O         1 <0>         0.0000
  37287 WAT       -32.4320  -71.9160   -8.0830 O         1 <0>         0.0000
  37288 WAT       -32.4320  -71.9160   -7.8330 O         1 <0>         0.0000
  37289 WAT       -32.4320  -71.9160   -7.5830 O         1 <0>         0.0001
  37290 WAT       -32.4320  -71.9160   -7.3330 O         1 <0>         0.0004
  37291 WAT       -32.4320  -71.9160   -7.0830 O         1 <0>         0.0008
  37292 WAT       -32.4320  -71.9160   -6.8330 O         1 <0>         0.0015
  37293 WAT       -32.4320  -71.9160   -6.5830 O         1 <0>         0.0035
  37294 WAT       -32.4320  -71.9160   -6.3330 O         1 <0>         0.0070
  37295 WAT       -32.4320  -71.9160   -6.0830 O         1 <0>         0.0099
  37296 WAT       -32.4320  -71.9160   -5.8330 O         1 <0>         0.0095
  37297 WAT       -32.4320  -71.9160   -5.5830 O         1 <0>         0.0063
  37298 WAT       -32.4320  -71.9160   -5.3330 O         1 <0>         0.0030
  37299 WAT       -32.4320  -71.9160   -5.0830 O         1 <0>         0.0012
  37300 WAT       -32.4320  -71.9160   -4.8330 O         1 <0>         0.0004
  37301 WAT       -32.4320  -71.9160   -4.5830 O         1 <0>         0.0002
  37302 WAT       -32.4320  -71.9160   -4.3330 O         1 <0>         0.0002
  37303 WAT       -32.4320  -71.9160   -4.0830 O         1 <0>         0.0003
  37304 WAT       -32.4320  -71.9160   -3.8330 O         1 <0>         0.0009
  37305 WAT       -32.4320  -71.9160   -3.5830 O         1 <0>         0.0022
  37306 WAT       -32.4320  -71.9160   -3.3330 O         1 <0>         0.0036
  37307 WAT       -32.4320  -71.9160   -3.0830 O         1 <0>         0.0037
  37308 WAT       -32.4320  -71.9160   -2.8330 O         1 <0>         0.0023
  37309 WAT       -32.4320  -71.9160   -2.5830 O         1 <0>         0.0008
  37310 WAT       -32.4320  -71.9160   -2.3330 O         1 <0>         0.0002
  37311 WAT       -32.4320  -71.9160   -2.0830 O         1 <0>         0.0000
  37312 WAT       -32.4320  -71.9160   -1.8330 O         1 <0>         0.0000
  37313 WAT       -32.4320  -71.9160   -1.5830 O         1 <0>         0.0000
  37314 WAT       -32.4320  -71.9160   -1.3330 O         1 <0>         0.0000
  37315 WAT       -32.4320  -71.9160   -1.0830 O         1 <0>         0.0000
  37316 WAT       -32.4320  -71.9160   -0.8330 O         1 <0>         0.0000
  37317 WAT       -32.4320  -71.9160   -0.5830 O         1 <0>         0.0000
  37318 WAT       -32.4320  -71.9160   -0.3330 O         1 <0>         0.0000
  37319 WAT       -32.4320  -71.9160   -0.0830 O         1 <0>         0.0000
  37320 WAT       -32.4320  -71.6660   -9.8330 O         1 <0>         0.0000
  37321 WAT       -32.4320  -71.6660   -9.5830 O         1 <0>         0.0000
  37322 WAT       -32.4320  -71.6660   -9.3330 O         1 <0>         0.0000
  37323 WAT       -32.4320  -71.6660   -9.0830 O         1 <0>         0.0000
  37324 WAT       -32.4320  -71.6660   -8.8330 O         1 <0>         0.0000
  37325 WAT       -32.4320  -71.6660   -8.5830 O         1 <0>         0.0000
  37326 WAT       -32.4320  -71.6660   -8.3330 O         1 <0>         0.0000
  37327 WAT       -32.4320  -71.6660   -8.0830 O         1 <0>         0.0000
  37328 WAT       -32.4320  -71.6660   -7.8330 O         1 <0>         0.0000
  37329 WAT       -32.4320  -71.6660   -7.5830 O         1 <0>         0.0002
  37330 WAT       -32.4320  -71.6660   -7.3330 O         1 <0>         0.0006
  37331 WAT       -32.4320  -71.6660   -7.0830 O         1 <0>         0.0013
  37332 WAT       -32.4320  -71.6660   -6.8330 O         1 <0>         0.0041
  37333 WAT       -32.4320  -71.6660   -6.5830 O         1 <0>         0.0124
  37334 WAT       -32.4320  -71.6660   -6.3330 O         1 <0>         0.0250
  37335 WAT       -32.4320  -71.6660   -6.0830 O         1 <0>         0.0324
  37336 WAT       -32.4320  -71.6660   -5.8330 O         1 <0>         0.0271
  37337 WAT       -32.4320  -71.6660   -5.5830 O         1 <0>         0.0147
  37338 WAT       -32.4320  -71.6660   -5.3330 O         1 <0>         0.0053
  37339 WAT       -32.4320  -71.6660   -5.0830 O         1 <0>         0.0013
  37340 WAT       -32.4320  -71.6660   -4.8330 O         1 <0>         0.0003
  37341 WAT       -32.4320  -71.6660   -4.5830 O         1 <0>         0.0001
  37342 WAT       -32.4320  -71.6660   -4.3330 O         1 <0>         0.0000
  37343 WAT       -32.4320  -71.6660   -4.0830 O         1 <0>         0.0000
  37344 WAT       -32.4320  -71.6660   -3.8330 O         1 <0>         0.0001
  37345 WAT       -32.4320  -71.6660   -3.5830 O         1 <0>         0.0004
  37346 WAT       -32.4320  -71.6660   -3.3330 O         1 <0>         0.0006
  37347 WAT       -32.4320  -71.6660   -3.0830 O         1 <0>         0.0006
  37348 WAT       -32.4320  -71.6660   -2.8330 O         1 <0>         0.0003
  37349 WAT       -32.4320  -71.6660   -2.5830 O         1 <0>         0.0001
  37350 WAT       -32.4320  -71.6660   -2.3330 O         1 <0>         0.0000
  37351 WAT       -32.4320  -71.6660   -2.0830 O         1 <0>         0.0000
  37352 WAT       -32.4320  -71.6660   -1.8330 O         1 <0>         0.0000
  37353 WAT       -32.4320  -71.6660   -1.5830 O         1 <0>         0.0000
  37354 WAT       -32.4320  -71.6660   -1.3330 O         1 <0>         0.0000
  37355 WAT       -32.4320  -71.6660   -1.0830 O         1 <0>         0.0000
  37356 WAT       -32.4320  -71.6660   -0.8330 O         1 <0>         0.0000
  37357 WAT       -32.4320  -71.6660   -0.5830 O         1 <0>         0.0000
  37358 WAT       -32.4320  -71.6660   -0.3330 O         1 <0>         0.0000
  37359 WAT       -32.4320  -71.6660   -0.0830 O         1 <0>         0.0000
  37360 WAT       -32.4320  -71.4160   -9.8330 O         1 <0>         0.0000
  37361 WAT       -32.4320  -71.4160   -9.5830 O         1 <0>         0.0000
  37362 WAT       -32.4320  -71.4160   -9.3330 O         1 <0>         0.0000
  37363 WAT       -32.4320  -71.4160   -9.0830 O         1 <0>         0.0000
  37364 WAT       -32.4320  -71.4160   -8.8330 O         1 <0>         0.0000
  37365 WAT       -32.4320  -71.4160   -8.5830 O         1 <0>         0.0000
  37366 WAT       -32.4320  -71.4160   -8.3330 O         1 <0>         0.0000
  37367 WAT       -32.4320  -71.4160   -8.0830 O         1 <0>         0.0000
  37368 WAT       -32.4320  -71.4160   -7.8330 O         1 <0>         0.0001
  37369 WAT       -32.4320  -71.4160   -7.5830 O         1 <0>         0.0006
  37370 WAT       -32.4320  -71.4160   -7.3330 O         1 <0>         0.0016
  37371 WAT       -32.4320  -71.4160   -7.0830 O         1 <0>         0.0039
  37372 WAT       -32.4320  -71.4160   -6.8330 O         1 <0>         0.0142
  37373 WAT       -32.4320  -71.4160   -6.5830 O         1 <0>         0.0397
  37374 WAT       -32.4320  -71.4160   -6.3330 O         1 <0>         0.0732
  37375 WAT       -32.4320  -71.4160   -6.0830 O         1 <0>         0.0871
  37376 WAT       -32.4320  -71.4160   -5.8330 O         1 <0>         0.0662
  37377 WAT       -32.4320  -71.4160   -5.5830 O         1 <0>         0.0320
  37378 WAT       -32.4320  -71.4160   -5.3330 O         1 <0>         0.0097
  37379 WAT       -32.4320  -71.4160   -5.0830 O         1 <0>         0.0017
  37380 WAT       -32.4320  -71.4160   -4.8330 O         1 <0>         0.0002
  37381 WAT       -32.4320  -71.4160   -4.5830 O         1 <0>         0.0000
  37382 WAT       -32.4320  -71.4160   -4.3330 O         1 <0>         0.0000
  37383 WAT       -32.4320  -71.4160   -4.0830 O         1 <0>         0.0000
  37384 WAT       -32.4320  -71.4160   -3.8330 O         1 <0>         0.0000
  37385 WAT       -32.4320  -71.4160   -3.5830 O         1 <0>         0.0000
  37386 WAT       -32.4320  -71.4160   -3.3330 O         1 <0>         0.0001
  37387 WAT       -32.4320  -71.4160   -3.0830 O         1 <0>         0.0000
  37388 WAT       -32.4320  -71.4160   -2.8330 O         1 <0>         0.0000
  37389 WAT       -32.4320  -71.4160   -2.5830 O         1 <0>         0.0000
  37390 WAT       -32.4320  -71.4160   -2.3330 O         1 <0>         0.0000
  37391 WAT       -32.4320  -71.4160   -2.0830 O         1 <0>         0.0000
  37392 WAT       -32.4320  -71.4160   -1.8330 O         1 <0>         0.0000
  37393 WAT       -32.4320  -71.4160   -1.5830 O         1 <0>         0.0000
  37394 WAT       -32.4320  -71.4160   -1.3330 O         1 <0>         0.0000
  37395 WAT       -32.4320  -71.4160   -1.0830 O         1 <0>         0.0000
  37396 WAT       -32.4320  -71.4160   -0.8330 O         1 <0>         0.0000
  37397 WAT       -32.4320  -71.4160   -0.5830 O         1 <0>         0.0000
  37398 WAT       -32.4320  -71.4160   -0.3330 O         1 <0>         0.0000
  37399 WAT       -32.4320  -71.4160   -0.0830 O         1 <0>         0.0000
  37400 WAT       -32.4320  -71.1660   -9.8330 O         1 <0>         0.0000
  37401 WAT       -32.4320  -71.1660   -9.5830 O         1 <0>         0.0000
  37402 WAT       -32.4320  -71.1660   -9.3330 O         1 <0>         0.0000
  37403 WAT       -32.4320  -71.1660   -9.0830 O         1 <0>         0.0000
  37404 WAT       -32.4320  -71.1660   -8.8330 O         1 <0>         0.0000
  37405 WAT       -32.4320  -71.1660   -8.5830 O         1 <0>         0.0000
  37406 WAT       -32.4320  -71.1660   -8.3330 O         1 <0>         0.0000
  37407 WAT       -32.4320  -71.1660   -8.0830 O         1 <0>         0.0001
  37408 WAT       -32.4320  -71.1660   -7.8330 O         1 <0>         0.0005
  37409 WAT       -32.4320  -71.1660   -7.5830 O         1 <0>         0.0016
  37410 WAT       -32.4320  -71.1660   -7.3330 O         1 <0>         0.0037
  37411 WAT       -32.4320  -71.1660   -7.0830 O         1 <0>         0.0107
  37412 WAT       -32.4320  -71.1660   -6.8330 O         1 <0>         0.0374
  37413 WAT       -32.4320  -71.1660   -6.5830 O         1 <0>         0.0952
  37414 WAT       -32.4320  -71.1660   -6.3330 O         1 <0>         0.1629
  37415 WAT       -32.4320  -71.1660   -6.0830 O         1 <0>         0.1804
  37416 WAT       -32.4320  -71.1660   -5.8330 O         1 <0>         0.1274
  37417 WAT       -32.4320  -71.1660   -5.5830 O         1 <0>         0.0569
  37418 WAT       -32.4320  -71.1660   -5.3330 O         1 <0>         0.0156
  37419 WAT       -32.4320  -71.1660   -5.0830 O         1 <0>         0.0022
  37420 WAT       -32.4320  -71.1660   -4.8330 O         1 <0>         0.0001
  37421 WAT       -32.4320  -71.1660   -4.5830 O         1 <0>         0.0000
  37422 WAT       -32.4320  -71.1660   -4.3330 O         1 <0>         0.0000
  37423 WAT       -32.4320  -71.1660   -4.0830 O         1 <0>         0.0000
  37424 WAT       -32.4320  -71.1660   -3.8330 O         1 <0>         0.0000
  37425 WAT       -32.4320  -71.1660   -3.5830 O         1 <0>         0.0000
  37426 WAT       -32.4320  -71.1660   -3.3330 O         1 <0>         0.0000
  37427 WAT       -32.4320  -71.1660   -3.0830 O         1 <0>         0.0000
  37428 WAT       -32.4320  -71.1660   -2.8330 O         1 <0>         0.0000
  37429 WAT       -32.4320  -71.1660   -2.5830 O         1 <0>         0.0000
  37430 WAT       -32.4320  -71.1660   -2.3330 O         1 <0>         0.0000
  37431 WAT       -32.4320  -71.1660   -2.0830 O         1 <0>         0.0000
  37432 WAT       -32.4320  -71.1660   -1.8330 O         1 <0>         0.0000
  37433 WAT       -32.4320  -71.1660   -1.5830 O         1 <0>         0.0000
  37434 WAT       -32.4320  -71.1660   -1.3330 O         1 <0>         0.0000
  37435 WAT       -32.4320  -71.1660   -1.0830 O         1 <0>         0.0000
  37436 WAT       -32.4320  -71.1660   -0.8330 O         1 <0>         0.0000
  37437 WAT       -32.4320  -71.1660   -0.5830 O         1 <0>         0.0000
  37438 WAT       -32.4320  -71.1660   -0.3330 O         1 <0>         0.0000
  37439 WAT       -32.4320  -71.1660   -0.0830 O         1 <0>         0.0000
  37440 WAT       -32.4320  -70.9160   -9.8330 O         1 <0>         0.0000
  37441 WAT       -32.4320  -70.9160   -9.5830 O         1 <0>         0.0000
  37442 WAT       -32.4320  -70.9160   -9.3330 O         1 <0>         0.0000
  37443 WAT       -32.4320  -70.9160   -9.0830 O         1 <0>         0.0000
  37444 WAT       -32.4320  -70.9160   -8.8330 O         1 <0>         0.0000
  37445 WAT       -32.4320  -70.9160   -8.5830 O         1 <0>         0.0000
  37446 WAT       -32.4320  -70.9160   -8.3330 O         1 <0>         0.0000
  37447 WAT       -32.4320  -70.9160   -8.0830 O         1 <0>         0.0002
  37448 WAT       -32.4320  -70.9160   -7.8330 O         1 <0>         0.0010
  37449 WAT       -32.4320  -70.9160   -7.5830 O         1 <0>         0.0030
  37450 WAT       -32.4320  -70.9160   -7.3330 O         1 <0>         0.0070
  37451 WAT       -32.4320  -70.9160   -7.0830 O         1 <0>         0.0225
  37452 WAT       -32.4320  -70.9160   -6.8330 O         1 <0>         0.0728
  37453 WAT       -32.4320  -70.9160   -6.5830 O         1 <0>         0.1721
  37454 WAT       -32.4320  -70.9160   -6.3330 O         1 <0>         0.2743
  37455 WAT       -32.4320  -70.9160   -6.0830 O         1 <0>         0.2837
  37456 WAT       -32.4320  -70.9160   -5.8330 O         1 <0>         0.1875
  37457 WAT       -32.4320  -70.9160   -5.5830 O         1 <0>         0.0783
  37458 WAT       -32.4320  -70.9160   -5.3330 O         1 <0>         0.0199
  37459 WAT       -32.4320  -70.9160   -5.0830 O         1 <0>         0.0024
  37460 WAT       -32.4320  -70.9160   -4.8330 O         1 <0>         0.0001
  37461 WAT       -32.4320  -70.9160   -4.5830 O         1 <0>         0.0000
  37462 WAT       -32.4320  -70.9160   -4.3330 O         1 <0>         0.0000
  37463 WAT       -32.4320  -70.9160   -4.0830 O         1 <0>         0.0000
  37464 WAT       -32.4320  -70.9160   -3.8330 O         1 <0>         0.0000
  37465 WAT       -32.4320  -70.9160   -3.5830 O         1 <0>         0.0000
  37466 WAT       -32.4320  -70.9160   -3.3330 O         1 <0>         0.0000
  37467 WAT       -32.4320  -70.9160   -3.0830 O         1 <0>         0.0000
  37468 WAT       -32.4320  -70.9160   -2.8330 O         1 <0>         0.0000
  37469 WAT       -32.4320  -70.9160   -2.5830 O         1 <0>         0.0000
  37470 WAT       -32.4320  -70.9160   -2.3330 O         1 <0>         0.0000
  37471 WAT       -32.4320  -70.9160   -2.0830 O         1 <0>         0.0000
  37472 WAT       -32.4320  -70.9160   -1.8330 O         1 <0>         0.0000
  37473 WAT       -32.4320  -70.9160   -1.5830 O         1 <0>         0.0000
  37474 WAT       -32.4320  -70.9160   -1.3330 O         1 <0>         0.0000
  37475 WAT       -32.4320  -70.9160   -1.0830 O         1 <0>         0.0000
  37476 WAT       -32.4320  -70.9160   -0.8330 O         1 <0>         0.0000
  37477 WAT       -32.4320  -70.9160   -0.5830 O         1 <0>         0.0000
  37478 WAT       -32.4320  -70.9160   -0.3330 O         1 <0>         0.0000
  37479 WAT       -32.4320  -70.9160   -0.0830 O         1 <0>         0.0000
  37480 WAT       -32.4320  -70.6660   -9.8330 O         1 <0>         0.0000
  37481 WAT       -32.4320  -70.6660   -9.5830 O         1 <0>         0.0000
  37482 WAT       -32.4320  -70.6660   -9.3330 O         1 <0>         0.0000
  37483 WAT       -32.4320  -70.6660   -9.0830 O         1 <0>         0.0000
  37484 WAT       -32.4320  -70.6660   -8.8330 O         1 <0>         0.0000
  37485 WAT       -32.4320  -70.6660   -8.5830 O         1 <0>         0.0000
  37486 WAT       -32.4320  -70.6660   -8.3330 O         1 <0>         0.0000
  37487 WAT       -32.4320  -70.6660   -8.0830 O         1 <0>         0.0004
  37488 WAT       -32.4320  -70.6660   -7.8330 O         1 <0>         0.0015
  37489 WAT       -32.4320  -70.6660   -7.5830 O         1 <0>         0.0042
  37490 WAT       -32.4320  -70.6660   -7.3330 O         1 <0>         0.0104
  37491 WAT       -32.4320  -70.6660   -7.0830 O         1 <0>         0.0353
  37492 WAT       -32.4320  -70.6660   -6.8330 O         1 <0>         0.1076
  37493 WAT       -32.4320  -70.6660   -6.5830 O         1 <0>         0.2373
  37494 WAT       -32.4320  -70.6660   -6.3330 O         1 <0>         0.3525
  37495 WAT       -32.4320  -70.6660   -6.0830 O         1 <0>         0.3406
  37496 WAT       -32.4320  -70.6660   -5.8330 O         1 <0>         0.2107
  37497 WAT       -32.4320  -70.6660   -5.5830 O         1 <0>         0.0824
  37498 WAT       -32.4320  -70.6660   -5.3330 O         1 <0>         0.0193
  37499 WAT       -32.4320  -70.6660   -5.0830 O         1 <0>         0.0020
  37500 WAT       -32.4320  -70.6660   -4.8330 O         1 <0>         0.0000
  37501 WAT       -32.4320  -70.6660   -4.5830 O         1 <0>         0.0000
  37502 WAT       -32.4320  -70.6660   -4.3330 O         1 <0>         0.0000
  37503 WAT       -32.4320  -70.6660   -4.0830 O         1 <0>         0.0000
  37504 WAT       -32.4320  -70.6660   -3.8330 O         1 <0>         0.0000
  37505 WAT       -32.4320  -70.6660   -3.5830 O         1 <0>         0.0000
  37506 WAT       -32.4320  -70.6660   -3.3330 O         1 <0>         0.0000
  37507 WAT       -32.4320  -70.6660   -3.0830 O         1 <0>         0.0000
  37508 WAT       -32.4320  -70.6660   -2.8330 O         1 <0>         0.0000
  37509 WAT       -32.4320  -70.6660   -2.5830 O         1 <0>         0.0000
  37510 WAT       -32.4320  -70.6660   -2.3330 O         1 <0>         0.0000
  37511 WAT       -32.4320  -70.6660   -2.0830 O         1 <0>         0.0000
  37512 WAT       -32.4320  -70.6660   -1.8330 O         1 <0>         0.0000
  37513 WAT       -32.4320  -70.6660   -1.5830 O         1 <0>         0.0000
  37514 WAT       -32.4320  -70.6660   -1.3330 O         1 <0>         0.0000
  37515 WAT       -32.4320  -70.6660   -1.0830 O         1 <0>         0.0000
  37516 WAT       -32.4320  -70.6660   -0.8330 O         1 <0>         0.0000
  37517 WAT       -32.4320  -70.6660   -0.5830 O         1 <0>         0.0000
  37518 WAT       -32.4320  -70.6660   -0.3330 O         1 <0>         0.0000
  37519 WAT       -32.4320  -70.6660   -0.0830 O         1 <0>         0.0000
  37520 WAT       -32.4320  -70.4160   -9.8330 O         1 <0>         0.0000
  37521 WAT       -32.4320  -70.4160   -9.5830 O         1 <0>         0.0000
  37522 WAT       -32.4320  -70.4160   -9.3330 O         1 <0>         0.0000
  37523 WAT       -32.4320  -70.4160   -9.0830 O         1 <0>         0.0000
  37524 WAT       -32.4320  -70.4160   -8.8330 O         1 <0>         0.0000
  37525 WAT       -32.4320  -70.4160   -8.5830 O         1 <0>         0.0000
  37526 WAT       -32.4320  -70.4160   -8.3330 O         1 <0>         0.0001
  37527 WAT       -32.4320  -70.4160   -8.0830 O         1 <0>         0.0005
  37528 WAT       -32.4320  -70.4160   -7.8330 O         1 <0>         0.0017
  37529 WAT       -32.4320  -70.4160   -7.5830 O         1 <0>         0.0045
  37530 WAT       -32.4320  -70.4160   -7.3330 O         1 <0>         0.0120
  37531 WAT       -32.4320  -70.4160   -7.0830 O         1 <0>         0.0416
  37532 WAT       -32.4320  -70.4160   -6.8330 O         1 <0>         0.1210
  37533 WAT       -32.4320  -70.4160   -6.5830 O         1 <0>         0.2506
  37534 WAT       -32.4320  -70.4160   -6.3330 O         1 <0>         0.3482
  37535 WAT       -32.4320  -70.4160   -6.0830 O         1 <0>         0.3150
  37536 WAT       -32.4320  -70.4160   -5.8330 O         1 <0>         0.1828
  37537 WAT       -32.4320  -70.4160   -5.5830 O         1 <0>         0.0669
  37538 WAT       -32.4320  -70.4160   -5.3330 O         1 <0>         0.0139
  37539 WAT       -32.4320  -70.4160   -5.0830 O         1 <0>         0.0011
  37540 WAT       -32.4320  -70.4160   -4.8330 O         1 <0>         0.0000
  37541 WAT       -32.4320  -70.4160   -4.5830 O         1 <0>         0.0000
  37542 WAT       -32.4320  -70.4160   -4.3330 O         1 <0>         0.0000
  37543 WAT       -32.4320  -70.4160   -4.0830 O         1 <0>         0.0000
  37544 WAT       -32.4320  -70.4160   -3.8330 O         1 <0>         0.0000
  37545 WAT       -32.4320  -70.4160   -3.5830 O         1 <0>         0.0000
  37546 WAT       -32.4320  -70.4160   -3.3330 O         1 <0>         0.0000
  37547 WAT       -32.4320  -70.4160   -3.0830 O         1 <0>         0.0000
  37548 WAT       -32.4320  -70.4160   -2.8330 O         1 <0>         0.0000
  37549 WAT       -32.4320  -70.4160   -2.5830 O         1 <0>         0.0000
  37550 WAT       -32.4320  -70.4160   -2.3330 O         1 <0>         0.0000
  37551 WAT       -32.4320  -70.4160   -2.0830 O         1 <0>         0.0000
  37552 WAT       -32.4320  -70.4160   -1.8330 O         1 <0>         0.0000
  37553 WAT       -32.4320  -70.4160   -1.5830 O         1 <0>         0.0000
  37554 WAT       -32.4320  -70.4160   -1.3330 O         1 <0>         0.0000
  37555 WAT       -32.4320  -70.4160   -1.0830 O         1 <0>         0.0000
  37556 WAT       -32.4320  -70.4160   -0.8330 O         1 <0>         0.0000
  37557 WAT       -32.4320  -70.4160   -0.5830 O         1 <0>         0.0000
  37558 WAT       -32.4320  -70.4160   -0.3330 O         1 <0>         0.0000
  37559 WAT       -32.4320  -70.4160   -0.0830 O         1 <0>         0.0000
  37560 WAT       -32.4320  -70.1660   -9.8330 O         1 <0>         0.0000
  37561 WAT       -32.4320  -70.1660   -9.5830 O         1 <0>         0.0000
  37562 WAT       -32.4320  -70.1660   -9.3330 O         1 <0>         0.0000
  37563 WAT       -32.4320  -70.1660   -9.0830 O         1 <0>         0.0000
  37564 WAT       -32.4320  -70.1660   -8.8330 O         1 <0>         0.0000
  37565 WAT       -32.4320  -70.1660   -8.5830 O         1 <0>         0.0000
  37566 WAT       -32.4320  -70.1660   -8.3330 O         1 <0>         0.0001
  37567 WAT       -32.4320  -70.1660   -8.0830 O         1 <0>         0.0005
  37568 WAT       -32.4320  -70.1660   -7.8330 O         1 <0>         0.0015
  37569 WAT       -32.4320  -70.1660   -7.5830 O         1 <0>         0.0036
  37570 WAT       -32.4320  -70.1660   -7.3330 O         1 <0>         0.0103
  37571 WAT       -32.4320  -70.1660   -7.0830 O         1 <0>         0.0362
  37572 WAT       -32.4320  -70.1660   -6.8330 O         1 <0>         0.1022
  37573 WAT       -32.4320  -70.1660   -6.5830 O         1 <0>         0.2013
  37574 WAT       -32.4320  -70.1660   -6.3330 O         1 <0>         0.2641
  37575 WAT       -32.4320  -70.1660   -6.0830 O         1 <0>         0.2257
  37576 WAT       -32.4320  -70.1660   -5.8330 O         1 <0>         0.1237
  37577 WAT       -32.4320  -70.1660   -5.5830 O         1 <0>         0.0421
  37578 WAT       -32.4320  -70.1660   -5.3330 O         1 <0>         0.0076
  37579 WAT       -32.4320  -70.1660   -5.0830 O         1 <0>         0.0004
  37580 WAT       -32.4320  -70.1660   -4.8330 O         1 <0>         0.0000
  37581 WAT       -32.4320  -70.1660   -4.5830 O         1 <0>         0.0000
  37582 WAT       -32.4320  -70.1660   -4.3330 O         1 <0>         0.0000
  37583 WAT       -32.4320  -70.1660   -4.0830 O         1 <0>         0.0000
  37584 WAT       -32.4320  -70.1660   -3.8330 O         1 <0>         0.0000
  37585 WAT       -32.4320  -70.1660   -3.5830 O         1 <0>         0.0000
  37586 WAT       -32.4320  -70.1660   -3.3330 O         1 <0>         0.0000
  37587 WAT       -32.4320  -70.1660   -3.0830 O         1 <0>         0.0000
  37588 WAT       -32.4320  -70.1660   -2.8330 O         1 <0>         0.0000
  37589 WAT       -32.4320  -70.1660   -2.5830 O         1 <0>         0.0000
  37590 WAT       -32.4320  -70.1660   -2.3330 O         1 <0>         0.0000
  37591 WAT       -32.4320  -70.1660   -2.0830 O         1 <0>         0.0000
  37592 WAT       -32.4320  -70.1660   -1.8330 O         1 <0>         0.0000
  37593 WAT       -32.4320  -70.1660   -1.5830 O         1 <0>         0.0000
  37594 WAT       -32.4320  -70.1660   -1.3330 O         1 <0>         0.0000
  37595 WAT       -32.4320  -70.1660   -1.0830 O         1 <0>         0.0000
  37596 WAT       -32.4320  -70.1660   -0.8330 O         1 <0>         0.0000
  37597 WAT       -32.4320  -70.1660   -0.5830 O         1 <0>         0.0000
  37598 WAT       -32.4320  -70.1660   -0.3330 O         1 <0>         0.0000
  37599 WAT       -32.4320  -70.1660   -0.0830 O         1 <0>         0.0000
  37600 WAT       -32.4320  -69.9160   -9.8330 O         1 <0>         0.0000
  37601 WAT       -32.4320  -69.9160   -9.5830 O         1 <0>         0.0000
  37602 WAT       -32.4320  -69.9160   -9.3330 O         1 <0>         0.0000
  37603 WAT       -32.4320  -69.9160   -9.0830 O         1 <0>         0.0000
  37604 WAT       -32.4320  -69.9160   -8.8330 O         1 <0>         0.0000
  37605 WAT       -32.4320  -69.9160   -8.5830 O         1 <0>         0.0000
  37606 WAT       -32.4320  -69.9160   -8.3330 O         1 <0>         0.0001
  37607 WAT       -32.4320  -69.9160   -8.0830 O         1 <0>         0.0003
  37608 WAT       -32.4320  -69.9160   -7.8330 O         1 <0>         0.0009
  37609 WAT       -32.4320  -69.9160   -7.5830 O         1 <0>         0.0021
  37610 WAT       -32.4320  -69.9160   -7.3330 O         1 <0>         0.0063
  37611 WAT       -32.4320  -69.9160   -7.0830 O         1 <0>         0.0227
  37612 WAT       -32.4320  -69.9160   -6.8330 O         1 <0>         0.0638
  37613 WAT       -32.4320  -69.9160   -6.5830 O         1 <0>         0.1214
  37614 WAT       -32.4320  -69.9160   -6.3330 O         1 <0>         0.1527
  37615 WAT       -32.4320  -69.9160   -6.0830 O         1 <0>         0.1248
  37616 WAT       -32.4320  -69.9160   -5.8330 O         1 <0>         0.0651
  37617 WAT       -32.4320  -69.9160   -5.5830 O         1 <0>         0.0204
  37618 WAT       -32.4320  -69.9160   -5.3330 O         1 <0>         0.0031
  37619 WAT       -32.4320  -69.9160   -5.0830 O         1 <0>         0.0002
  37620 WAT       -32.4320  -69.9160   -4.8330 O         1 <0>         0.0000
  37621 WAT       -32.4320  -69.9160   -4.5830 O         1 <0>         0.0000
  37622 WAT       -32.4320  -69.9160   -4.3330 O         1 <0>         0.0000
  37623 WAT       -32.4320  -69.9160   -4.0830 O         1 <0>         0.0000
  37624 WAT       -32.4320  -69.9160   -3.8330 O         1 <0>         0.0000
  37625 WAT       -32.4320  -69.9160   -3.5830 O         1 <0>         0.0000
  37626 WAT       -32.4320  -69.9160   -3.3330 O         1 <0>         0.0000
  37627 WAT       -32.4320  -69.9160   -3.0830 O         1 <0>         0.0000
  37628 WAT       -32.4320  -69.9160   -2.8330 O         1 <0>         0.0000
  37629 WAT       -32.4320  -69.9160   -2.5830 O         1 <0>         0.0000
  37630 WAT       -32.4320  -69.9160   -2.3330 O         1 <0>         0.0000
  37631 WAT       -32.4320  -69.9160   -2.0830 O         1 <0>         0.0000
  37632 WAT       -32.4320  -69.9160   -1.8330 O         1 <0>         0.0000
  37633 WAT       -32.4320  -69.9160   -1.5830 O         1 <0>         0.0000
  37634 WAT       -32.4320  -69.9160   -1.3330 O         1 <0>         0.0000
  37635 WAT       -32.4320  -69.9160   -1.0830 O         1 <0>         0.0000
  37636 WAT       -32.4320  -69.9160   -0.8330 O         1 <0>         0.0000
  37637 WAT       -32.4320  -69.9160   -0.5830 O         1 <0>         0.0000
  37638 WAT       -32.4320  -69.9160   -0.3330 O         1 <0>         0.0000
  37639 WAT       -32.4320  -69.9160   -0.0830 O         1 <0>         0.0000
  37640 WAT       -32.4320  -69.6660   -9.8330 O         1 <0>         0.0000
  37641 WAT       -32.4320  -69.6660   -9.5830 O         1 <0>         0.0000
  37642 WAT       -32.4320  -69.6660   -9.3330 O         1 <0>         0.0000
  37643 WAT       -32.4320  -69.6660   -9.0830 O         1 <0>         0.0000
  37644 WAT       -32.4320  -69.6660   -8.8330 O         1 <0>         0.0000
  37645 WAT       -32.4320  -69.6660   -8.5830 O         1 <0>         0.0000
  37646 WAT       -32.4320  -69.6660   -8.3330 O         1 <0>         0.0000
  37647 WAT       -32.4320  -69.6660   -8.0830 O         1 <0>         0.0001
  37648 WAT       -32.4320  -69.6660   -7.8330 O         1 <0>         0.0004
  37649 WAT       -32.4320  -69.6660   -7.5830 O         1 <0>         0.0009
  37650 WAT       -32.4320  -69.6660   -7.3330 O         1 <0>         0.0026
  37651 WAT       -32.4320  -69.6660   -7.0830 O         1 <0>         0.0099
  37652 WAT       -32.4320  -69.6660   -6.8330 O         1 <0>         0.0288
  37653 WAT       -32.4320  -69.6660   -6.5830 O         1 <0>         0.0542
  37654 WAT       -32.4320  -69.6660   -6.3330 O         1 <0>         0.0666
  37655 WAT       -32.4320  -69.6660   -6.0830 O         1 <0>         0.0528
  37656 WAT       -32.4320  -69.6660   -5.8330 O         1 <0>         0.0263
  37657 WAT       -32.4320  -69.6660   -5.5830 O         1 <0>         0.0076
  37658 WAT       -32.4320  -69.6660   -5.3330 O         1 <0>         0.0011
  37659 WAT       -32.4320  -69.6660   -5.0830 O         1 <0>         0.0001
  37660 WAT       -32.4320  -69.6660   -4.8330 O         1 <0>         0.0000
  37661 WAT       -32.4320  -69.6660   -4.5830 O         1 <0>         0.0000
  37662 WAT       -32.4320  -69.6660   -4.3330 O         1 <0>         0.0000
  37663 WAT       -32.4320  -69.6660   -4.0830 O         1 <0>         0.0000
  37664 WAT       -32.4320  -69.6660   -3.8330 O         1 <0>         0.0000
  37665 WAT       -32.4320  -69.6660   -3.5830 O         1 <0>         0.0000
  37666 WAT       -32.4320  -69.6660   -3.3330 O         1 <0>         0.0000
  37667 WAT       -32.4320  -69.6660   -3.0830 O         1 <0>         0.0000
  37668 WAT       -32.4320  -69.6660   -2.8330 O         1 <0>         0.0000
  37669 WAT       -32.4320  -69.6660   -2.5830 O         1 <0>         0.0000
  37670 WAT       -32.4320  -69.6660   -2.3330 O         1 <0>         0.0000
  37671 WAT       -32.4320  -69.6660   -2.0830 O         1 <0>         0.0000
  37672 WAT       -32.4320  -69.6660   -1.8330 O         1 <0>         0.0000
  37673 WAT       -32.4320  -69.6660   -1.5830 O         1 <0>         0.0000
  37674 WAT       -32.4320  -69.6660   -1.3330 O         1 <0>         0.0000
  37675 WAT       -32.4320  -69.6660   -1.0830 O         1 <0>         0.0000
  37676 WAT       -32.4320  -69.6660   -0.8330 O         1 <0>         0.0000
  37677 WAT       -32.4320  -69.6660   -0.5830 O         1 <0>         0.0000
  37678 WAT       -32.4320  -69.6660   -0.3330 O         1 <0>         0.0000
  37679 WAT       -32.4320  -69.6660   -0.0830 O         1 <0>         0.0000
  37680 WAT       -32.4320  -69.4160   -9.8330 O         1 <0>         0.0000
  37681 WAT       -32.4320  -69.4160   -9.5830 O         1 <0>         0.0000
  37682 WAT       -32.4320  -69.4160   -9.3330 O         1 <0>         0.0000
  37683 WAT       -32.4320  -69.4160   -9.0830 O         1 <0>         0.0000
  37684 WAT       -32.4320  -69.4160   -8.8330 O         1 <0>         0.0000
  37685 WAT       -32.4320  -69.4160   -8.5830 O         1 <0>         0.0000
  37686 WAT       -32.4320  -69.4160   -8.3330 O         1 <0>         0.0000
  37687 WAT       -32.4320  -69.4160   -8.0830 O         1 <0>         0.0000
  37688 WAT       -32.4320  -69.4160   -7.8330 O         1 <0>         0.0001
  37689 WAT       -32.4320  -69.4160   -7.5830 O         1 <0>         0.0002
  37690 WAT       -32.4320  -69.4160   -7.3330 O         1 <0>         0.0007
  37691 WAT       -32.4320  -69.4160   -7.0830 O         1 <0>         0.0030
  37692 WAT       -32.4320  -69.4160   -6.8330 O         1 <0>         0.0091
  37693 WAT       -32.4320  -69.4160   -6.5830 O         1 <0>         0.0178
  37694 WAT       -32.4320  -69.4160   -6.3330 O         1 <0>         0.0219
  37695 WAT       -32.4320  -69.4160   -6.0830 O         1 <0>         0.0171
  37696 WAT       -32.4320  -69.4160   -5.8330 O         1 <0>         0.0083
  37697 WAT       -32.4320  -69.4160   -5.5830 O         1 <0>         0.0024
  37698 WAT       -32.4320  -69.4160   -5.3330 O         1 <0>         0.0004
  37699 WAT       -32.4320  -69.4160   -5.0830 O         1 <0>         0.0000
  37700 WAT       -32.4320  -69.4160   -4.8330 O         1 <0>         0.0000
  37701 WAT       -32.4320  -69.4160   -4.5830 O         1 <0>         0.0000
  37702 WAT       -32.4320  -69.4160   -4.3330 O         1 <0>         0.0000
  37703 WAT       -32.4320  -69.4160   -4.0830 O         1 <0>         0.0000
  37704 WAT       -32.4320  -69.4160   -3.8330 O         1 <0>         0.0000
  37705 WAT       -32.4320  -69.4160   -3.5830 O         1 <0>         0.0000
  37706 WAT       -32.4320  -69.4160   -3.3330 O         1 <0>         0.0000
  37707 WAT       -32.4320  -69.4160   -3.0830 O         1 <0>         0.0000
  37708 WAT       -32.4320  -69.4160   -2.8330 O         1 <0>         0.0000
  37709 WAT       -32.4320  -69.4160   -2.5830 O         1 <0>         0.0000
  37710 WAT       -32.4320  -69.4160   -2.3330 O         1 <0>         0.0000
  37711 WAT       -32.4320  -69.4160   -2.0830 O         1 <0>         0.0000
  37712 WAT       -32.4320  -69.4160   -1.8330 O         1 <0>         0.0000
  37713 WAT       -32.4320  -69.4160   -1.5830 O         1 <0>         0.0000
  37714 WAT       -32.4320  -69.4160   -1.3330 O         1 <0>         0.0000
  37715 WAT       -32.4320  -69.4160   -1.0830 O         1 <0>         0.0000
  37716 WAT       -32.4320  -69.4160   -0.8330 O         1 <0>         0.0000
  37717 WAT       -32.4320  -69.4160   -0.5830 O         1 <0>         0.0000
  37718 WAT       -32.4320  -69.4160   -0.3330 O         1 <0>         0.0000
  37719 WAT       -32.4320  -69.4160   -0.0830 O         1 <0>         0.0000
  37720 WAT       -32.4320  -69.1660   -9.8330 O         1 <0>         0.0000
  37721 WAT       -32.4320  -69.1660   -9.5830 O         1 <0>         0.0000
  37722 WAT       -32.4320  -69.1660   -9.3330 O         1 <0>         0.0000
  37723 WAT       -32.4320  -69.1660   -9.0830 O         1 <0>         0.0000
  37724 WAT       -32.4320  -69.1660   -8.8330 O         1 <0>         0.0000
  37725 WAT       -32.4320  -69.1660   -8.5830 O         1 <0>         0.0000
  37726 WAT       -32.4320  -69.1660   -8.3330 O         1 <0>         0.0000
  37727 WAT       -32.4320  -69.1660   -8.0830 O         1 <0>         0.0000
  37728 WAT       -32.4320  -69.1660   -7.8330 O         1 <0>         0.0000
  37729 WAT       -32.4320  -69.1660   -7.5830 O         1 <0>         0.0000
  37730 WAT       -32.4320  -69.1660   -7.3330 O         1 <0>         0.0001
  37731 WAT       -32.4320  -69.1660   -7.0830 O         1 <0>         0.0007
  37732 WAT       -32.4320  -69.1660   -6.8330 O         1 <0>         0.0022
  37733 WAT       -32.4320  -69.1660   -6.5830 O         1 <0>         0.0045
  37734 WAT       -32.4320  -69.1660   -6.3330 O         1 <0>         0.0058
  37735 WAT       -32.4320  -69.1660   -6.0830 O         1 <0>         0.0047
  37736 WAT       -32.4320  -69.1660   -5.8330 O         1 <0>         0.0024
  37737 WAT       -32.4320  -69.1660   -5.5830 O         1 <0>         0.0007
  37738 WAT       -32.4320  -69.1660   -5.3330 O         1 <0>         0.0001
  37739 WAT       -32.4320  -69.1660   -5.0830 O         1 <0>         0.0000
  37740 WAT       -32.4320  -69.1660   -4.8330 O         1 <0>         0.0000
  37741 WAT       -32.4320  -69.1660   -4.5830 O         1 <0>         0.0000
  37742 WAT       -32.4320  -69.1660   -4.3330 O         1 <0>         0.0000
  37743 WAT       -32.4320  -69.1660   -4.0830 O         1 <0>         0.0000
  37744 WAT       -32.4320  -69.1660   -3.8330 O         1 <0>         0.0000
  37745 WAT       -32.4320  -69.1660   -3.5830 O         1 <0>         0.0000
  37746 WAT       -32.4320  -69.1660   -3.3330 O         1 <0>         0.0000
  37747 WAT       -32.4320  -69.1660   -3.0830 O         1 <0>         0.0000
  37748 WAT       -32.4320  -69.1660   -2.8330 O         1 <0>         0.0000
  37749 WAT       -32.4320  -69.1660   -2.5830 O         1 <0>         0.0000
  37750 WAT       -32.4320  -69.1660   -2.3330 O         1 <0>         0.0000
  37751 WAT       -32.4320  -69.1660   -2.0830 O         1 <0>         0.0000
  37752 WAT       -32.4320  -69.1660   -1.8330 O         1 <0>         0.0000
  37753 WAT       -32.4320  -69.1660   -1.5830 O         1 <0>         0.0000
  37754 WAT       -32.4320  -69.1660   -1.3330 O         1 <0>         0.0000
  37755 WAT       -32.4320  -69.1660   -1.0830 O         1 <0>         0.0000
  37756 WAT       -32.4320  -69.1660   -0.8330 O         1 <0>         0.0000
  37757 WAT       -32.4320  -69.1660   -0.5830 O         1 <0>         0.0000
  37758 WAT       -32.4320  -69.1660   -0.3330 O         1 <0>         0.0000
  37759 WAT       -32.4320  -69.1660   -0.0830 O         1 <0>         0.0000
  37760 WAT       -32.4320  -68.9160   -9.8330 O         1 <0>         0.0000
  37761 WAT       -32.4320  -68.9160   -9.5830 O         1 <0>         0.0000
  37762 WAT       -32.4320  -68.9160   -9.3330 O         1 <0>         0.0000
  37763 WAT       -32.4320  -68.9160   -9.0830 O         1 <0>         0.0000
  37764 WAT       -32.4320  -68.9160   -8.8330 O         1 <0>         0.0000
  37765 WAT       -32.4320  -68.9160   -8.5830 O         1 <0>         0.0000
  37766 WAT       -32.4320  -68.9160   -8.3330 O         1 <0>         0.0000
  37767 WAT       -32.4320  -68.9160   -8.0830 O         1 <0>         0.0000
  37768 WAT       -32.4320  -68.9160   -7.8330 O         1 <0>         0.0000
  37769 WAT       -32.4320  -68.9160   -7.5830 O         1 <0>         0.0000
  37770 WAT       -32.4320  -68.9160   -7.3330 O         1 <0>         0.0000
  37771 WAT       -32.4320  -68.9160   -7.0830 O         1 <0>         0.0001
  37772 WAT       -32.4320  -68.9160   -6.8330 O         1 <0>         0.0005
  37773 WAT       -32.4320  -68.9160   -6.5830 O         1 <0>         0.0011
  37774 WAT       -32.4320  -68.9160   -6.3330 O         1 <0>         0.0015
  37775 WAT       -32.4320  -68.9160   -6.0830 O         1 <0>         0.0013
  37776 WAT       -32.4320  -68.9160   -5.8330 O         1 <0>         0.0008
  37777 WAT       -32.4320  -68.9160   -5.5830 O         1 <0>         0.0003
  37778 WAT       -32.4320  -68.9160   -5.3330 O         1 <0>         0.0001
  37779 WAT       -32.4320  -68.9160   -5.0830 O         1 <0>         0.0000
  37780 WAT       -32.4320  -68.9160   -4.8330 O         1 <0>         0.0000
  37781 WAT       -32.4320  -68.9160   -4.5830 O         1 <0>         0.0000
  37782 WAT       -32.4320  -68.9160   -4.3330 O         1 <0>         0.0000
  37783 WAT       -32.4320  -68.9160   -4.0830 O         1 <0>         0.0000
  37784 WAT       -32.4320  -68.9160   -3.8330 O         1 <0>         0.0000
  37785 WAT       -32.4320  -68.9160   -3.5830 O         1 <0>         0.0000
  37786 WAT       -32.4320  -68.9160   -3.3330 O         1 <0>         0.0000
  37787 WAT       -32.4320  -68.9160   -3.0830 O         1 <0>         0.0000
  37788 WAT       -32.4320  -68.9160   -2.8330 O         1 <0>         0.0000
  37789 WAT       -32.4320  -68.9160   -2.5830 O         1 <0>         0.0000
  37790 WAT       -32.4320  -68.9160   -2.3330 O         1 <0>         0.0000
  37791 WAT       -32.4320  -68.9160   -2.0830 O         1 <0>         0.0000
  37792 WAT       -32.4320  -68.9160   -1.8330 O         1 <0>         0.0000
  37793 WAT       -32.4320  -68.9160   -1.5830 O         1 <0>         0.0000
  37794 WAT       -32.4320  -68.9160   -1.3330 O         1 <0>         0.0000
  37795 WAT       -32.4320  -68.9160   -1.0830 O         1 <0>         0.0000
  37796 WAT       -32.4320  -68.9160   -0.8330 O         1 <0>         0.0000
  37797 WAT       -32.4320  -68.9160   -0.5830 O         1 <0>         0.0000
  37798 WAT       -32.4320  -68.9160   -0.3330 O         1 <0>         0.0000
  37799 WAT       -32.4320  -68.9160   -0.0830 O         1 <0>         0.0000
  37800 WAT       -32.1820  -77.4160   -9.8330 O         1 <0>         0.0000
  37801 WAT       -32.1820  -77.4160   -9.5830 O         1 <0>         0.0000
  37802 WAT       -32.1820  -77.4160   -9.3330 O         1 <0>         0.0000
  37803 WAT       -32.1820  -77.4160   -9.0830 O         1 <0>         0.0000
  37804 WAT       -32.1820  -77.4160   -8.8330 O         1 <0>         0.0000
  37805 WAT       -32.1820  -77.4160   -8.5830 O         1 <0>         0.0000
  37806 WAT       -32.1820  -77.4160   -8.3330 O         1 <0>         0.0000
  37807 WAT       -32.1820  -77.4160   -8.0830 O         1 <0>         0.0000
  37808 WAT       -32.1820  -77.4160   -7.8330 O         1 <0>         0.0000
  37809 WAT       -32.1820  -77.4160   -7.5830 O         1 <0>         0.0000
  37810 WAT       -32.1820  -77.4160   -7.3330 O         1 <0>         0.0000
  37811 WAT       -32.1820  -77.4160   -7.0830 O         1 <0>         0.0000
  37812 WAT       -32.1820  -77.4160   -6.8330 O         1 <0>         0.0000
  37813 WAT       -32.1820  -77.4160   -6.5830 O         1 <0>         0.0000
  37814 WAT       -32.1820  -77.4160   -6.3330 O         1 <0>         0.0000
  37815 WAT       -32.1820  -77.4160   -6.0830 O         1 <0>         0.0000
  37816 WAT       -32.1820  -77.4160   -5.8330 O         1 <0>         0.0000
  37817 WAT       -32.1820  -77.4160   -5.5830 O         1 <0>         0.0000
  37818 WAT       -32.1820  -77.4160   -5.3330 O         1 <0>         0.0000
  37819 WAT       -32.1820  -77.4160   -5.0830 O         1 <0>         0.0000
  37820 WAT       -32.1820  -77.4160   -4.8330 O         1 <0>         0.0000
  37821 WAT       -32.1820  -77.4160   -4.5830 O         1 <0>         0.0000
  37822 WAT       -32.1820  -77.4160   -4.3330 O         1 <0>         0.0000
  37823 WAT       -32.1820  -77.4160   -4.0830 O         1 <0>         0.0000
  37824 WAT       -32.1820  -77.4160   -3.8330 O         1 <0>         0.0000
  37825 WAT       -32.1820  -77.4160   -3.5830 O         1 <0>         0.0000
  37826 WAT       -32.1820  -77.4160   -3.3330 O         1 <0>         0.0000
  37827 WAT       -32.1820  -77.4160   -3.0830 O         1 <0>         0.0000
  37828 WAT       -32.1820  -77.4160   -2.8330 O         1 <0>         0.0000
  37829 WAT       -32.1820  -77.4160   -2.5830 O         1 <0>         0.0000
  37830 WAT       -32.1820  -77.4160   -2.3330 O         1 <0>         0.0000
  37831 WAT       -32.1820  -77.4160   -2.0830 O         1 <0>         0.0000
  37832 WAT       -32.1820  -77.4160   -1.8330 O         1 <0>         0.0000
  37833 WAT       -32.1820  -77.4160   -1.5830 O         1 <0>         0.0000
  37834 WAT       -32.1820  -77.4160   -1.3330 O         1 <0>         0.0000
  37835 WAT       -32.1820  -77.4160   -1.0830 O         1 <0>         0.0000
  37836 WAT       -32.1820  -77.4160   -0.8330 O         1 <0>         0.0000
  37837 WAT       -32.1820  -77.4160   -0.5830 O         1 <0>         0.0000
  37838 WAT       -32.1820  -77.4160   -0.3330 O         1 <0>         0.0000
  37839 WAT       -32.1820  -77.4160   -0.0830 O         1 <0>         0.0000
  37840 WAT       -32.1820  -77.1660   -9.8330 O         1 <0>         0.0000
  37841 WAT       -32.1820  -77.1660   -9.5830 O         1 <0>         0.0000
  37842 WAT       -32.1820  -77.1660   -9.3330 O         1 <0>         0.0000
  37843 WAT       -32.1820  -77.1660   -9.0830 O         1 <0>         0.0000
  37844 WAT       -32.1820  -77.1660   -8.8330 O         1 <0>         0.0000
  37845 WAT       -32.1820  -77.1660   -8.5830 O         1 <0>         0.0000
  37846 WAT       -32.1820  -77.1660   -8.3330 O         1 <0>         0.0000
  37847 WAT       -32.1820  -77.1660   -8.0830 O         1 <0>         0.0000
  37848 WAT       -32.1820  -77.1660   -7.8330 O         1 <0>         0.0000
  37849 WAT       -32.1820  -77.1660   -7.5830 O         1 <0>         0.0000
  37850 WAT       -32.1820  -77.1660   -7.3330 O         1 <0>         0.0000
  37851 WAT       -32.1820  -77.1660   -7.0830 O         1 <0>         0.0000
  37852 WAT       -32.1820  -77.1660   -6.8330 O         1 <0>         0.0000
  37853 WAT       -32.1820  -77.1660   -6.5830 O         1 <0>         0.0000
  37854 WAT       -32.1820  -77.1660   -6.3330 O         1 <0>         0.0000
  37855 WAT       -32.1820  -77.1660   -6.0830 O         1 <0>         0.0000
  37856 WAT       -32.1820  -77.1660   -5.8330 O         1 <0>         0.0000
  37857 WAT       -32.1820  -77.1660   -5.5830 O         1 <0>         0.0000
  37858 WAT       -32.1820  -77.1660   -5.3330 O         1 <0>         0.0000
  37859 WAT       -32.1820  -77.1660   -5.0830 O         1 <0>         0.0000
  37860 WAT       -32.1820  -77.1660   -4.8330 O         1 <0>         0.0000
  37861 WAT       -32.1820  -77.1660   -4.5830 O         1 <0>         0.0000
  37862 WAT       -32.1820  -77.1660   -4.3330 O         1 <0>         0.0000
  37863 WAT       -32.1820  -77.1660   -4.0830 O         1 <0>         0.0000
  37864 WAT       -32.1820  -77.1660   -3.8330 O         1 <0>         0.0000
  37865 WAT       -32.1820  -77.1660   -3.5830 O         1 <0>         0.0000
  37866 WAT       -32.1820  -77.1660   -3.3330 O         1 <0>         0.0000
  37867 WAT       -32.1820  -77.1660   -3.0830 O         1 <0>         0.0000
  37868 WAT       -32.1820  -77.1660   -2.8330 O         1 <0>         0.0000
  37869 WAT       -32.1820  -77.1660   -2.5830 O         1 <0>         0.0000
  37870 WAT       -32.1820  -77.1660   -2.3330 O         1 <0>         0.0000
  37871 WAT       -32.1820  -77.1660   -2.0830 O         1 <0>         0.0000
  37872 WAT       -32.1820  -77.1660   -1.8330 O         1 <0>         0.0000
  37873 WAT       -32.1820  -77.1660   -1.5830 O         1 <0>         0.0000
  37874 WAT       -32.1820  -77.1660   -1.3330 O         1 <0>         0.0000
  37875 WAT       -32.1820  -77.1660   -1.0830 O         1 <0>         0.0000
  37876 WAT       -32.1820  -77.1660   -0.8330 O         1 <0>         0.0000
  37877 WAT       -32.1820  -77.1660   -0.5830 O         1 <0>         0.0000
  37878 WAT       -32.1820  -77.1660   -0.3330 O         1 <0>         0.0000
  37879 WAT       -32.1820  -77.1660   -0.0830 O         1 <0>         0.0000
  37880 WAT       -32.1820  -76.9160   -9.8330 O         1 <0>         0.0000
  37881 WAT       -32.1820  -76.9160   -9.5830 O         1 <0>         0.0000
  37882 WAT       -32.1820  -76.9160   -9.3330 O         1 <0>         0.0000
  37883 WAT       -32.1820  -76.9160   -9.0830 O         1 <0>         0.0000
  37884 WAT       -32.1820  -76.9160   -8.8330 O         1 <0>         0.0000
  37885 WAT       -32.1820  -76.9160   -8.5830 O         1 <0>         0.0000
  37886 WAT       -32.1820  -76.9160   -8.3330 O         1 <0>         0.0000
  37887 WAT       -32.1820  -76.9160   -8.0830 O         1 <0>         0.0000
  37888 WAT       -32.1820  -76.9160   -7.8330 O         1 <0>         0.0000
  37889 WAT       -32.1820  -76.9160   -7.5830 O         1 <0>         0.0000
  37890 WAT       -32.1820  -76.9160   -7.3330 O         1 <0>         0.0000
  37891 WAT       -32.1820  -76.9160   -7.0830 O         1 <0>         0.0000
  37892 WAT       -32.1820  -76.9160   -6.8330 O         1 <0>         0.0000
  37893 WAT       -32.1820  -76.9160   -6.5830 O         1 <0>         0.0000
  37894 WAT       -32.1820  -76.9160   -6.3330 O         1 <0>         0.0000
  37895 WAT       -32.1820  -76.9160   -6.0830 O         1 <0>         0.0000
  37896 WAT       -32.1820  -76.9160   -5.8330 O         1 <0>         0.0000
  37897 WAT       -32.1820  -76.9160   -5.5830 O         1 <0>         0.0000
  37898 WAT       -32.1820  -76.9160   -5.3330 O         1 <0>         0.0000
  37899 WAT       -32.1820  -76.9160   -5.0830 O         1 <0>         0.0000
  37900 WAT       -32.1820  -76.9160   -4.8330 O         1 <0>         0.0000
  37901 WAT       -32.1820  -76.9160   -4.5830 O         1 <0>         0.0000
  37902 WAT       -32.1820  -76.9160   -4.3330 O         1 <0>         0.0000
  37903 WAT       -32.1820  -76.9160   -4.0830 O         1 <0>         0.0000
  37904 WAT       -32.1820  -76.9160   -3.8330 O         1 <0>         0.0000
  37905 WAT       -32.1820  -76.9160   -3.5830 O         1 <0>         0.0000
  37906 WAT       -32.1820  -76.9160   -3.3330 O         1 <0>         0.0000
  37907 WAT       -32.1820  -76.9160   -3.0830 O         1 <0>         0.0000
  37908 WAT       -32.1820  -76.9160   -2.8330 O         1 <0>         0.0000
  37909 WAT       -32.1820  -76.9160   -2.5830 O         1 <0>         0.0000
  37910 WAT       -32.1820  -76.9160   -2.3330 O         1 <0>         0.0000
  37911 WAT       -32.1820  -76.9160   -2.0830 O         1 <0>         0.0000
  37912 WAT       -32.1820  -76.9160   -1.8330 O         1 <0>         0.0000
  37913 WAT       -32.1820  -76.9160   -1.5830 O         1 <0>         0.0000
  37914 WAT       -32.1820  -76.9160   -1.3330 O         1 <0>         0.0000
  37915 WAT       -32.1820  -76.9160   -1.0830 O         1 <0>         0.0000
  37916 WAT       -32.1820  -76.9160   -0.8330 O         1 <0>         0.0000
  37917 WAT       -32.1820  -76.9160   -0.5830 O         1 <0>         0.0000
  37918 WAT       -32.1820  -76.9160   -0.3330 O         1 <0>         0.0000
  37919 WAT       -32.1820  -76.9160   -0.0830 O         1 <0>         0.0000
  37920 WAT       -32.1820  -76.6660   -9.8330 O         1 <0>         0.0000
  37921 WAT       -32.1820  -76.6660   -9.5830 O         1 <0>         0.0000
  37922 WAT       -32.1820  -76.6660   -9.3330 O         1 <0>         0.0000
  37923 WAT       -32.1820  -76.6660   -9.0830 O         1 <0>         0.0000
  37924 WAT       -32.1820  -76.6660   -8.8330 O         1 <0>         0.0000
  37925 WAT       -32.1820  -76.6660   -8.5830 O         1 <0>         0.0000
  37926 WAT       -32.1820  -76.6660   -8.3330 O         1 <0>         0.0000
  37927 WAT       -32.1820  -76.6660   -8.0830 O         1 <0>         0.0000
  37928 WAT       -32.1820  -76.6660   -7.8330 O         1 <0>         0.0000
  37929 WAT       -32.1820  -76.6660   -7.5830 O         1 <0>         0.0000
  37930 WAT       -32.1820  -76.6660   -7.3330 O         1 <0>         0.0000
  37931 WAT       -32.1820  -76.6660   -7.0830 O         1 <0>         0.0000
  37932 WAT       -32.1820  -76.6660   -6.8330 O         1 <0>         0.0000
  37933 WAT       -32.1820  -76.6660   -6.5830 O         1 <0>         0.0000
  37934 WAT       -32.1820  -76.6660   -6.3330 O         1 <0>         0.0000
  37935 WAT       -32.1820  -76.6660   -6.0830 O         1 <0>         0.0000
  37936 WAT       -32.1820  -76.6660   -5.8330 O         1 <0>         0.0000
  37937 WAT       -32.1820  -76.6660   -5.5830 O         1 <0>         0.0000
  37938 WAT       -32.1820  -76.6660   -5.3330 O         1 <0>         0.0000
  37939 WAT       -32.1820  -76.6660   -5.0830 O         1 <0>         0.0000
  37940 WAT       -32.1820  -76.6660   -4.8330 O         1 <0>         0.0000
  37941 WAT       -32.1820  -76.6660   -4.5830 O         1 <0>         0.0000
  37942 WAT       -32.1820  -76.6660   -4.3330 O         1 <0>         0.0000
  37943 WAT       -32.1820  -76.6660   -4.0830 O         1 <0>         0.0000
  37944 WAT       -32.1820  -76.6660   -3.8330 O         1 <0>         0.0000
  37945 WAT       -32.1820  -76.6660   -3.5830 O         1 <0>         0.0000
  37946 WAT       -32.1820  -76.6660   -3.3330 O         1 <0>         0.0000
  37947 WAT       -32.1820  -76.6660   -3.0830 O         1 <0>         0.0000
  37948 WAT       -32.1820  -76.6660   -2.8330 O         1 <0>         0.0000
  37949 WAT       -32.1820  -76.6660   -2.5830 O         1 <0>         0.0000
  37950 WAT       -32.1820  -76.6660   -2.3330 O         1 <0>         0.0000
  37951 WAT       -32.1820  -76.6660   -2.0830 O         1 <0>         0.0000
  37952 WAT       -32.1820  -76.6660   -1.8330 O         1 <0>         0.0000
  37953 WAT       -32.1820  -76.6660   -1.5830 O         1 <0>         0.0000
  37954 WAT       -32.1820  -76.6660   -1.3330 O         1 <0>         0.0000
  37955 WAT       -32.1820  -76.6660   -1.0830 O         1 <0>         0.0000
  37956 WAT       -32.1820  -76.6660   -0.8330 O         1 <0>         0.0000
  37957 WAT       -32.1820  -76.6660   -0.5830 O         1 <0>         0.0000
  37958 WAT       -32.1820  -76.6660   -0.3330 O         1 <0>         0.0000
  37959 WAT       -32.1820  -76.6660   -0.0830 O         1 <0>         0.0000
  37960 WAT       -32.1820  -76.4160   -9.8330 O         1 <0>         0.0000
  37961 WAT       -32.1820  -76.4160   -9.5830 O         1 <0>         0.0000
  37962 WAT       -32.1820  -76.4160   -9.3330 O         1 <0>         0.0000
  37963 WAT       -32.1820  -76.4160   -9.0830 O         1 <0>         0.0000
  37964 WAT       -32.1820  -76.4160   -8.8330 O         1 <0>         0.0000
  37965 WAT       -32.1820  -76.4160   -8.5830 O         1 <0>         0.0000
  37966 WAT       -32.1820  -76.4160   -8.3330 O         1 <0>         0.0000
  37967 WAT       -32.1820  -76.4160   -8.0830 O         1 <0>         0.0000
  37968 WAT       -32.1820  -76.4160   -7.8330 O         1 <0>         0.0000
  37969 WAT       -32.1820  -76.4160   -7.5830 O         1 <0>         0.0000
  37970 WAT       -32.1820  -76.4160   -7.3330 O         1 <0>         0.0000
  37971 WAT       -32.1820  -76.4160   -7.0830 O         1 <0>         0.0000
  37972 WAT       -32.1820  -76.4160   -6.8330 O         1 <0>         0.0000
  37973 WAT       -32.1820  -76.4160   -6.5830 O         1 <0>         0.0000
  37974 WAT       -32.1820  -76.4160   -6.3330 O         1 <0>         0.0000
  37975 WAT       -32.1820  -76.4160   -6.0830 O         1 <0>         0.0000
  37976 WAT       -32.1820  -76.4160   -5.8330 O         1 <0>         0.0000
  37977 WAT       -32.1820  -76.4160   -5.5830 O         1 <0>         0.0000
  37978 WAT       -32.1820  -76.4160   -5.3330 O         1 <0>         0.0000
  37979 WAT       -32.1820  -76.4160   -5.0830 O         1 <0>         0.0000
  37980 WAT       -32.1820  -76.4160   -4.8330 O         1 <0>         0.0000
  37981 WAT       -32.1820  -76.4160   -4.5830 O         1 <0>         0.0000
  37982 WAT       -32.1820  -76.4160   -4.3330 O         1 <0>         0.0000
  37983 WAT       -32.1820  -76.4160   -4.0830 O         1 <0>         0.0000
  37984 WAT       -32.1820  -76.4160   -3.8330 O         1 <0>         0.0000
  37985 WAT       -32.1820  -76.4160   -3.5830 O         1 <0>         0.0000
  37986 WAT       -32.1820  -76.4160   -3.3330 O         1 <0>         0.0000
  37987 WAT       -32.1820  -76.4160   -3.0830 O         1 <0>         0.0000
  37988 WAT       -32.1820  -76.4160   -2.8330 O         1 <0>         0.0000
  37989 WAT       -32.1820  -76.4160   -2.5830 O         1 <0>         0.0000
  37990 WAT       -32.1820  -76.4160   -2.3330 O         1 <0>         0.0000
  37991 WAT       -32.1820  -76.4160   -2.0830 O         1 <0>         0.0000
  37992 WAT       -32.1820  -76.4160   -1.8330 O         1 <0>         0.0000
  37993 WAT       -32.1820  -76.4160   -1.5830 O         1 <0>         0.0000
  37994 WAT       -32.1820  -76.4160   -1.3330 O         1 <0>         0.0000
  37995 WAT       -32.1820  -76.4160   -1.0830 O         1 <0>         0.0000
  37996 WAT       -32.1820  -76.4160   -0.8330 O         1 <0>         0.0000
  37997 WAT       -32.1820  -76.4160   -0.5830 O         1 <0>         0.0000
  37998 WAT       -32.1820  -76.4160   -0.3330 O         1 <0>         0.0000
  37999 WAT       -32.1820  -76.4160   -0.0830 O         1 <0>         0.0000
  38000 WAT       -32.1820  -76.1660   -9.8330 O         1 <0>         0.0000
  38001 WAT       -32.1820  -76.1660   -9.5830 O         1 <0>         0.0000
  38002 WAT       -32.1820  -76.1660   -9.3330 O         1 <0>         0.0000
  38003 WAT       -32.1820  -76.1660   -9.0830 O         1 <0>         0.0000
  38004 WAT       -32.1820  -76.1660   -8.8330 O         1 <0>         0.0000
  38005 WAT       -32.1820  -76.1660   -8.5830 O         1 <0>         0.0000
  38006 WAT       -32.1820  -76.1660   -8.3330 O         1 <0>         0.0000
  38007 WAT       -32.1820  -76.1660   -8.0830 O         1 <0>         0.0000
  38008 WAT       -32.1820  -76.1660   -7.8330 O         1 <0>         0.0000
  38009 WAT       -32.1820  -76.1660   -7.5830 O         1 <0>         0.0000
  38010 WAT       -32.1820  -76.1660   -7.3330 O         1 <0>         0.0000
  38011 WAT       -32.1820  -76.1660   -7.0830 O         1 <0>         0.0000
  38012 WAT       -32.1820  -76.1660   -6.8330 O         1 <0>         0.0000
  38013 WAT       -32.1820  -76.1660   -6.5830 O         1 <0>         0.0000
  38014 WAT       -32.1820  -76.1660   -6.3330 O         1 <0>         0.0000
  38015 WAT       -32.1820  -76.1660   -6.0830 O         1 <0>         0.0000
  38016 WAT       -32.1820  -76.1660   -5.8330 O         1 <0>         0.0000
  38017 WAT       -32.1820  -76.1660   -5.5830 O         1 <0>         0.0001
  38018 WAT       -32.1820  -76.1660   -5.3330 O         1 <0>         0.0000
  38019 WAT       -32.1820  -76.1660   -5.0830 O         1 <0>         0.0000
  38020 WAT       -32.1820  -76.1660   -4.8330 O         1 <0>         0.0000
  38021 WAT       -32.1820  -76.1660   -4.5830 O         1 <0>         0.0000
  38022 WAT       -32.1820  -76.1660   -4.3330 O         1 <0>         0.0000
  38023 WAT       -32.1820  -76.1660   -4.0830 O         1 <0>         0.0000
  38024 WAT       -32.1820  -76.1660   -3.8330 O         1 <0>         0.0000
  38025 WAT       -32.1820  -76.1660   -3.5830 O         1 <0>         0.0000
  38026 WAT       -32.1820  -76.1660   -3.3330 O         1 <0>         0.0000
  38027 WAT       -32.1820  -76.1660   -3.0830 O         1 <0>         0.0000
  38028 WAT       -32.1820  -76.1660   -2.8330 O         1 <0>         0.0000
  38029 WAT       -32.1820  -76.1660   -2.5830 O         1 <0>         0.0000
  38030 WAT       -32.1820  -76.1660   -2.3330 O         1 <0>         0.0000
  38031 WAT       -32.1820  -76.1660   -2.0830 O         1 <0>         0.0000
  38032 WAT       -32.1820  -76.1660   -1.8330 O         1 <0>         0.0000
  38033 WAT       -32.1820  -76.1660   -1.5830 O         1 <0>         0.0000
  38034 WAT       -32.1820  -76.1660   -1.3330 O         1 <0>         0.0000
  38035 WAT       -32.1820  -76.1660   -1.0830 O         1 <0>         0.0000
  38036 WAT       -32.1820  -76.1660   -0.8330 O         1 <0>         0.0000
  38037 WAT       -32.1820  -76.1660   -0.5830 O         1 <0>         0.0000
  38038 WAT       -32.1820  -76.1660   -0.3330 O         1 <0>         0.0000
  38039 WAT       -32.1820  -76.1660   -0.0830 O         1 <0>         0.0000
  38040 WAT       -32.1820  -75.9160   -9.8330 O         1 <0>         0.0000
  38041 WAT       -32.1820  -75.9160   -9.5830 O         1 <0>         0.0000
  38042 WAT       -32.1820  -75.9160   -9.3330 O         1 <0>         0.0000
  38043 WAT       -32.1820  -75.9160   -9.0830 O         1 <0>         0.0000
  38044 WAT       -32.1820  -75.9160   -8.8330 O         1 <0>         0.0000
  38045 WAT       -32.1820  -75.9160   -8.5830 O         1 <0>         0.0000
  38046 WAT       -32.1820  -75.9160   -8.3330 O         1 <0>         0.0000
  38047 WAT       -32.1820  -75.9160   -8.0830 O         1 <0>         0.0000
  38048 WAT       -32.1820  -75.9160   -7.8330 O         1 <0>         0.0000
  38049 WAT       -32.1820  -75.9160   -7.5830 O         1 <0>         0.0000
  38050 WAT       -32.1820  -75.9160   -7.3330 O         1 <0>         0.0000
  38051 WAT       -32.1820  -75.9160   -7.0830 O         1 <0>         0.0000
  38052 WAT       -32.1820  -75.9160   -6.8330 O         1 <0>         0.0000
  38053 WAT       -32.1820  -75.9160   -6.5830 O         1 <0>         0.0000
  38054 WAT       -32.1820  -75.9160   -6.3330 O         1 <0>         0.0000
  38055 WAT       -32.1820  -75.9160   -6.0830 O         1 <0>         0.0002
  38056 WAT       -32.1820  -75.9160   -5.8330 O         1 <0>         0.0003
  38057 WAT       -32.1820  -75.9160   -5.5830 O         1 <0>         0.0004
  38058 WAT       -32.1820  -75.9160   -5.3330 O         1 <0>         0.0004
  38059 WAT       -32.1820  -75.9160   -5.0830 O         1 <0>         0.0002
  38060 WAT       -32.1820  -75.9160   -4.8330 O         1 <0>         0.0000
  38061 WAT       -32.1820  -75.9160   -4.5830 O         1 <0>         0.0000
  38062 WAT       -32.1820  -75.9160   -4.3330 O         1 <0>         0.0000
  38063 WAT       -32.1820  -75.9160   -4.0830 O         1 <0>         0.0000
  38064 WAT       -32.1820  -75.9160   -3.8330 O         1 <0>         0.0000
  38065 WAT       -32.1820  -75.9160   -3.5830 O         1 <0>         0.0000
  38066 WAT       -32.1820  -75.9160   -3.3330 O         1 <0>         0.0000
  38067 WAT       -32.1820  -75.9160   -3.0830 O         1 <0>         0.0000
  38068 WAT       -32.1820  -75.9160   -2.8330 O         1 <0>         0.0000
  38069 WAT       -32.1820  -75.9160   -2.5830 O         1 <0>         0.0000
  38070 WAT       -32.1820  -75.9160   -2.3330 O         1 <0>         0.0000
  38071 WAT       -32.1820  -75.9160   -2.0830 O         1 <0>         0.0000
  38072 WAT       -32.1820  -75.9160   -1.8330 O         1 <0>         0.0000
  38073 WAT       -32.1820  -75.9160   -1.5830 O         1 <0>         0.0000
  38074 WAT       -32.1820  -75.9160   -1.3330 O         1 <0>         0.0000
  38075 WAT       -32.1820  -75.9160   -1.0830 O         1 <0>         0.0000
  38076 WAT       -32.1820  -75.9160   -0.8330 O         1 <0>         0.0000
  38077 WAT       -32.1820  -75.9160   -0.5830 O         1 <0>         0.0000
  38078 WAT       -32.1820  -75.9160   -0.3330 O         1 <0>         0.0000
  38079 WAT       -32.1820  -75.9160   -0.0830 O         1 <0>         0.0000
  38080 WAT       -32.1820  -75.6660   -9.8330 O         1 <0>         0.0000
  38081 WAT       -32.1820  -75.6660   -9.5830 O         1 <0>         0.0000
  38082 WAT       -32.1820  -75.6660   -9.3330 O         1 <0>         0.0000
  38083 WAT       -32.1820  -75.6660   -9.0830 O         1 <0>         0.0000
  38084 WAT       -32.1820  -75.6660   -8.8330 O         1 <0>         0.0000
  38085 WAT       -32.1820  -75.6660   -8.5830 O         1 <0>         0.0000
  38086 WAT       -32.1820  -75.6660   -8.3330 O         1 <0>         0.0000
  38087 WAT       -32.1820  -75.6660   -8.0830 O         1 <0>         0.0000
  38088 WAT       -32.1820  -75.6660   -7.8330 O         1 <0>         0.0000
  38089 WAT       -32.1820  -75.6660   -7.5830 O         1 <0>         0.0000
  38090 WAT       -32.1820  -75.6660   -7.3330 O         1 <0>         0.0000
  38091 WAT       -32.1820  -75.6660   -7.0830 O         1 <0>         0.0000
  38092 WAT       -32.1820  -75.6660   -6.8330 O         1 <0>         0.0000
  38093 WAT       -32.1820  -75.6660   -6.5830 O         1 <0>         0.0000
  38094 WAT       -32.1820  -75.6660   -6.3330 O         1 <0>         0.0002
  38095 WAT       -32.1820  -75.6660   -6.0830 O         1 <0>         0.0008
  38096 WAT       -32.1820  -75.6660   -5.8330 O         1 <0>         0.0018
  38097 WAT       -32.1820  -75.6660   -5.5830 O         1 <0>         0.0024
  38098 WAT       -32.1820  -75.6660   -5.3330 O         1 <0>         0.0021
  38099 WAT       -32.1820  -75.6660   -5.0830 O         1 <0>         0.0012
  38100 WAT       -32.1820  -75.6660   -4.8330 O         1 <0>         0.0004
  38101 WAT       -32.1820  -75.6660   -4.5830 O         1 <0>         0.0001
  38102 WAT       -32.1820  -75.6660   -4.3330 O         1 <0>         0.0000
  38103 WAT       -32.1820  -75.6660   -4.0830 O         1 <0>         0.0000
  38104 WAT       -32.1820  -75.6660   -3.8330 O         1 <0>         0.0000
  38105 WAT       -32.1820  -75.6660   -3.5830 O         1 <0>         0.0000
  38106 WAT       -32.1820  -75.6660   -3.3330 O         1 <0>         0.0000
  38107 WAT       -32.1820  -75.6660   -3.0830 O         1 <0>         0.0000
  38108 WAT       -32.1820  -75.6660   -2.8330 O         1 <0>         0.0000
  38109 WAT       -32.1820  -75.6660   -2.5830 O         1 <0>         0.0000
  38110 WAT       -32.1820  -75.6660   -2.3330 O         1 <0>         0.0000
  38111 WAT       -32.1820  -75.6660   -2.0830 O         1 <0>         0.0000
  38112 WAT       -32.1820  -75.6660   -1.8330 O         1 <0>         0.0000
  38113 WAT       -32.1820  -75.6660   -1.5830 O         1 <0>         0.0000
  38114 WAT       -32.1820  -75.6660   -1.3330 O         1 <0>         0.0000
  38115 WAT       -32.1820  -75.6660   -1.0830 O         1 <0>         0.0000
  38116 WAT       -32.1820  -75.6660   -0.8330 O         1 <0>         0.0000
  38117 WAT       -32.1820  -75.6660   -0.5830 O         1 <0>         0.0000
  38118 WAT       -32.1820  -75.6660   -0.3330 O         1 <0>         0.0000
  38119 WAT       -32.1820  -75.6660   -0.0830 O         1 <0>         0.0000
  38120 WAT       -32.1820  -75.4160   -9.8330 O         1 <0>         0.0000
  38121 WAT       -32.1820  -75.4160   -9.5830 O         1 <0>         0.0000
  38122 WAT       -32.1820  -75.4160   -9.3330 O         1 <0>         0.0000
  38123 WAT       -32.1820  -75.4160   -9.0830 O         1 <0>         0.0000
  38124 WAT       -32.1820  -75.4160   -8.8330 O         1 <0>         0.0000
  38125 WAT       -32.1820  -75.4160   -8.5830 O         1 <0>         0.0000
  38126 WAT       -32.1820  -75.4160   -8.3330 O         1 <0>         0.0000
  38127 WAT       -32.1820  -75.4160   -8.0830 O         1 <0>         0.0000
  38128 WAT       -32.1820  -75.4160   -7.8330 O         1 <0>         0.0000
  38129 WAT       -32.1820  -75.4160   -7.5830 O         1 <0>         0.0000
  38130 WAT       -32.1820  -75.4160   -7.3330 O         1 <0>         0.0000
  38131 WAT       -32.1820  -75.4160   -7.0830 O         1 <0>         0.0000
  38132 WAT       -32.1820  -75.4160   -6.8330 O         1 <0>         0.0000
  38133 WAT       -32.1820  -75.4160   -6.5830 O         1 <0>         0.0001
  38134 WAT       -32.1820  -75.4160   -6.3330 O         1 <0>         0.0009
  38135 WAT       -32.1820  -75.4160   -6.0830 O         1 <0>         0.0031
  38136 WAT       -32.1820  -75.4160   -5.8330 O         1 <0>         0.0064
  38137 WAT       -32.1820  -75.4160   -5.5830 O         1 <0>         0.0088
  38138 WAT       -32.1820  -75.4160   -5.3330 O         1 <0>         0.0081
  38139 WAT       -32.1820  -75.4160   -5.0830 O         1 <0>         0.0051
  38140 WAT       -32.1820  -75.4160   -4.8330 O         1 <0>         0.0021
  38141 WAT       -32.1820  -75.4160   -4.5830 O         1 <0>         0.0006
  38142 WAT       -32.1820  -75.4160   -4.3330 O         1 <0>         0.0001
  38143 WAT       -32.1820  -75.4160   -4.0830 O         1 <0>         0.0000
  38144 WAT       -32.1820  -75.4160   -3.8330 O         1 <0>         0.0000
  38145 WAT       -32.1820  -75.4160   -3.5830 O         1 <0>         0.0000
  38146 WAT       -32.1820  -75.4160   -3.3330 O         1 <0>         0.0000
  38147 WAT       -32.1820  -75.4160   -3.0830 O         1 <0>         0.0000
  38148 WAT       -32.1820  -75.4160   -2.8330 O         1 <0>         0.0000
  38149 WAT       -32.1820  -75.4160   -2.5830 O         1 <0>         0.0000
  38150 WAT       -32.1820  -75.4160   -2.3330 O         1 <0>         0.0000
  38151 WAT       -32.1820  -75.4160   -2.0830 O         1 <0>         0.0000
  38152 WAT       -32.1820  -75.4160   -1.8330 O         1 <0>         0.0000
  38153 WAT       -32.1820  -75.4160   -1.5830 O         1 <0>         0.0000
  38154 WAT       -32.1820  -75.4160   -1.3330 O         1 <0>         0.0000
  38155 WAT       -32.1820  -75.4160   -1.0830 O         1 <0>         0.0000
  38156 WAT       -32.1820  -75.4160   -0.8330 O         1 <0>         0.0000
  38157 WAT       -32.1820  -75.4160   -0.5830 O         1 <0>         0.0000
  38158 WAT       -32.1820  -75.4160   -0.3330 O         1 <0>         0.0000
  38159 WAT       -32.1820  -75.4160   -0.0830 O         1 <0>         0.0000
  38160 WAT       -32.1820  -75.1660   -9.8330 O         1 <0>         0.0000
  38161 WAT       -32.1820  -75.1660   -9.5830 O         1 <0>         0.0000
  38162 WAT       -32.1820  -75.1660   -9.3330 O         1 <0>         0.0000
  38163 WAT       -32.1820  -75.1660   -9.0830 O         1 <0>         0.0000
  38164 WAT       -32.1820  -75.1660   -8.8330 O         1 <0>         0.0000
  38165 WAT       -32.1820  -75.1660   -8.5830 O         1 <0>         0.0000
  38166 WAT       -32.1820  -75.1660   -8.3330 O         1 <0>         0.0000
  38167 WAT       -32.1820  -75.1660   -8.0830 O         1 <0>         0.0000
  38168 WAT       -32.1820  -75.1660   -7.8330 O         1 <0>         0.0000
  38169 WAT       -32.1820  -75.1660   -7.5830 O         1 <0>         0.0000
  38170 WAT       -32.1820  -75.1660   -7.3330 O         1 <0>         0.0000
  38171 WAT       -32.1820  -75.1660   -7.0830 O         1 <0>         0.0000
  38172 WAT       -32.1820  -75.1660   -6.8330 O         1 <0>         0.0000
  38173 WAT       -32.1820  -75.1660   -6.5830 O         1 <0>         0.0006
  38174 WAT       -32.1820  -75.1660   -6.3330 O         1 <0>         0.0028
  38175 WAT       -32.1820  -75.1660   -6.0830 O         1 <0>         0.0084
  38176 WAT       -32.1820  -75.1660   -5.8330 O         1 <0>         0.0168
  38177 WAT       -32.1820  -75.1660   -5.5830 O         1 <0>         0.0230
  38178 WAT       -32.1820  -75.1660   -5.3330 O         1 <0>         0.0220
  38179 WAT       -32.1820  -75.1660   -5.0830 O         1 <0>         0.0148
  38180 WAT       -32.1820  -75.1660   -4.8330 O         1 <0>         0.0069
  38181 WAT       -32.1820  -75.1660   -4.5830 O         1 <0>         0.0022
  38182 WAT       -32.1820  -75.1660   -4.3330 O         1 <0>         0.0004
  38183 WAT       -32.1820  -75.1660   -4.0830 O         1 <0>         0.0000
  38184 WAT       -32.1820  -75.1660   -3.8330 O         1 <0>         0.0000
  38185 WAT       -32.1820  -75.1660   -3.5830 O         1 <0>         0.0000
  38186 WAT       -32.1820  -75.1660   -3.3330 O         1 <0>         0.0000
  38187 WAT       -32.1820  -75.1660   -3.0830 O         1 <0>         0.0000
  38188 WAT       -32.1820  -75.1660   -2.8330 O         1 <0>         0.0000
  38189 WAT       -32.1820  -75.1660   -2.5830 O         1 <0>         0.0000
  38190 WAT       -32.1820  -75.1660   -2.3330 O         1 <0>         0.0000
  38191 WAT       -32.1820  -75.1660   -2.0830 O         1 <0>         0.0000
  38192 WAT       -32.1820  -75.1660   -1.8330 O         1 <0>         0.0000
  38193 WAT       -32.1820  -75.1660   -1.5830 O         1 <0>         0.0000
  38194 WAT       -32.1820  -75.1660   -1.3330 O         1 <0>         0.0000
  38195 WAT       -32.1820  -75.1660   -1.0830 O         1 <0>         0.0000
  38196 WAT       -32.1820  -75.1660   -0.8330 O         1 <0>         0.0000
  38197 WAT       -32.1820  -75.1660   -0.5830 O         1 <0>         0.0000
  38198 WAT       -32.1820  -75.1660   -0.3330 O         1 <0>         0.0000
  38199 WAT       -32.1820  -75.1660   -0.0830 O         1 <0>         0.0000
  38200 WAT       -32.1820  -74.9160   -9.8330 O         1 <0>         0.0000
  38201 WAT       -32.1820  -74.9160   -9.5830 O         1 <0>         0.0000
  38202 WAT       -32.1820  -74.9160   -9.3330 O         1 <0>         0.0000
  38203 WAT       -32.1820  -74.9160   -9.0830 O         1 <0>         0.0000
  38204 WAT       -32.1820  -74.9160   -8.8330 O         1 <0>         0.0000
  38205 WAT       -32.1820  -74.9160   -8.5830 O         1 <0>         0.0000
  38206 WAT       -32.1820  -74.9160   -8.3330 O         1 <0>         0.0000
  38207 WAT       -32.1820  -74.9160   -8.0830 O         1 <0>         0.0000
  38208 WAT       -32.1820  -74.9160   -7.8330 O         1 <0>         0.0000
  38209 WAT       -32.1820  -74.9160   -7.5830 O         1 <0>         0.0000
  38210 WAT       -32.1820  -74.9160   -7.3330 O         1 <0>         0.0000
  38211 WAT       -32.1820  -74.9160   -7.0830 O         1 <0>         0.0000
  38212 WAT       -32.1820  -74.9160   -6.8330 O         1 <0>         0.0002
  38213 WAT       -32.1820  -74.9160   -6.5830 O         1 <0>         0.0015
  38214 WAT       -32.1820  -74.9160   -6.3330 O         1 <0>         0.0063
  38215 WAT       -32.1820  -74.9160   -6.0830 O         1 <0>         0.0173
  38216 WAT       -32.1820  -74.9160   -5.8330 O         1 <0>         0.0328
  38217 WAT       -32.1820  -74.9160   -5.5830 O         1 <0>         0.0445
  38218 WAT       -32.1820  -74.9160   -5.3330 O         1 <0>         0.0435
  38219 WAT       -32.1820  -74.9160   -5.0830 O         1 <0>         0.0305
  38220 WAT       -32.1820  -74.9160   -4.8330 O         1 <0>         0.0154
  38221 WAT       -32.1820  -74.9160   -4.5830 O         1 <0>         0.0055
  38222 WAT       -32.1820  -74.9160   -4.3330 O         1 <0>         0.0014
  38223 WAT       -32.1820  -74.9160   -4.0830 O         1 <0>         0.0002
  38224 WAT       -32.1820  -74.9160   -3.8330 O         1 <0>         0.0000
  38225 WAT       -32.1820  -74.9160   -3.5830 O         1 <0>         0.0000
  38226 WAT       -32.1820  -74.9160   -3.3330 O         1 <0>         0.0000
  38227 WAT       -32.1820  -74.9160   -3.0830 O         1 <0>         0.0000
  38228 WAT       -32.1820  -74.9160   -2.8330 O         1 <0>         0.0000
  38229 WAT       -32.1820  -74.9160   -2.5830 O         1 <0>         0.0000
  38230 WAT       -32.1820  -74.9160   -2.3330 O         1 <0>         0.0000
  38231 WAT       -32.1820  -74.9160   -2.0830 O         1 <0>         0.0000
  38232 WAT       -32.1820  -74.9160   -1.8330 O         1 <0>         0.0000
  38233 WAT       -32.1820  -74.9160   -1.5830 O         1 <0>         0.0000
  38234 WAT       -32.1820  -74.9160   -1.3330 O         1 <0>         0.0000
  38235 WAT       -32.1820  -74.9160   -1.0830 O         1 <0>         0.0000
  38236 WAT       -32.1820  -74.9160   -0.8330 O         1 <0>         0.0000
  38237 WAT       -32.1820  -74.9160   -0.5830 O         1 <0>         0.0000
  38238 WAT       -32.1820  -74.9160   -0.3330 O         1 <0>         0.0000
  38239 WAT       -32.1820  -74.9160   -0.0830 O         1 <0>         0.0000
  38240 WAT       -32.1820  -74.6660   -9.8330 O         1 <0>         0.0000
  38241 WAT       -32.1820  -74.6660   -9.5830 O         1 <0>         0.0000
  38242 WAT       -32.1820  -74.6660   -9.3330 O         1 <0>         0.0000
  38243 WAT       -32.1820  -74.6660   -9.0830 O         1 <0>         0.0000
  38244 WAT       -32.1820  -74.6660   -8.8330 O         1 <0>         0.0000
  38245 WAT       -32.1820  -74.6660   -8.5830 O         1 <0>         0.0000
  38246 WAT       -32.1820  -74.6660   -8.3330 O         1 <0>         0.0000
  38247 WAT       -32.1820  -74.6660   -8.0830 O         1 <0>         0.0000
  38248 WAT       -32.1820  -74.6660   -7.8330 O         1 <0>         0.0000
  38249 WAT       -32.1820  -74.6660   -7.5830 O         1 <0>         0.0000
  38250 WAT       -32.1820  -74.6660   -7.3330 O         1 <0>         0.0000
  38251 WAT       -32.1820  -74.6660   -7.0830 O         1 <0>         0.0001
  38252 WAT       -32.1820  -74.6660   -6.8330 O         1 <0>         0.0006
  38253 WAT       -32.1820  -74.6660   -6.5830 O         1 <0>         0.0032
  38254 WAT       -32.1820  -74.6660   -6.3330 O         1 <0>         0.0112
  38255 WAT       -32.1820  -74.6660   -6.0830 O         1 <0>         0.0276
  38256 WAT       -32.1820  -74.6660   -5.8330 O         1 <0>         0.0494
  38257 WAT       -32.1820  -74.6660   -5.5830 O         1 <0>         0.0657
  38258 WAT       -32.1820  -74.6660   -5.3330 O         1 <0>         0.0647
  38259 WAT       -32.1820  -74.6660   -5.0830 O         1 <0>         0.0466
  38260 WAT       -32.1820  -74.6660   -4.8330 O         1 <0>         0.0246
  38261 WAT       -32.1820  -74.6660   -4.5830 O         1 <0>         0.0095
  38262 WAT       -32.1820  -74.6660   -4.3330 O         1 <0>         0.0027
  38263 WAT       -32.1820  -74.6660   -4.0830 O         1 <0>         0.0006
  38264 WAT       -32.1820  -74.6660   -3.8330 O         1 <0>         0.0002
  38265 WAT       -32.1820  -74.6660   -3.5830 O         1 <0>         0.0002
  38266 WAT       -32.1820  -74.6660   -3.3330 O         1 <0>         0.0005
  38267 WAT       -32.1820  -74.6660   -3.0830 O         1 <0>         0.0009
  38268 WAT       -32.1820  -74.6660   -2.8330 O         1 <0>         0.0009
  38269 WAT       -32.1820  -74.6660   -2.5830 O         1 <0>         0.0005
  38270 WAT       -32.1820  -74.6660   -2.3330 O         1 <0>         0.0002
  38271 WAT       -32.1820  -74.6660   -2.0830 O         1 <0>         0.0001
  38272 WAT       -32.1820  -74.6660   -1.8330 O         1 <0>         0.0000
  38273 WAT       -32.1820  -74.6660   -1.5830 O         1 <0>         0.0000
  38274 WAT       -32.1820  -74.6660   -1.3330 O         1 <0>         0.0000
  38275 WAT       -32.1820  -74.6660   -1.0830 O         1 <0>         0.0000
  38276 WAT       -32.1820  -74.6660   -0.8330 O         1 <0>         0.0000
  38277 WAT       -32.1820  -74.6660   -0.5830 O         1 <0>         0.0000
  38278 WAT       -32.1820  -74.6660   -0.3330 O         1 <0>         0.0000
  38279 WAT       -32.1820  -74.6660   -0.0830 O         1 <0>         0.0000
  38280 WAT       -32.1820  -74.4160   -9.8330 O         1 <0>         0.0000
  38281 WAT       -32.1820  -74.4160   -9.5830 O         1 <0>         0.0000
  38282 WAT       -32.1820  -74.4160   -9.3330 O         1 <0>         0.0000
  38283 WAT       -32.1820  -74.4160   -9.0830 O         1 <0>         0.0000
  38284 WAT       -32.1820  -74.4160   -8.8330 O         1 <0>         0.0000
  38285 WAT       -32.1820  -74.4160   -8.5830 O         1 <0>         0.0000
  38286 WAT       -32.1820  -74.4160   -8.3330 O         1 <0>         0.0000
  38287 WAT       -32.1820  -74.4160   -8.0830 O         1 <0>         0.0000
  38288 WAT       -32.1820  -74.4160   -7.8330 O         1 <0>         0.0000
  38289 WAT       -32.1820  -74.4160   -7.5830 O         1 <0>         0.0000
  38290 WAT       -32.1820  -74.4160   -7.3330 O         1 <0>         0.0000
  38291 WAT       -32.1820  -74.4160   -7.0830 O         1 <0>         0.0004
  38292 WAT       -32.1820  -74.4160   -6.8330 O         1 <0>         0.0018
  38293 WAT       -32.1820  -74.4160   -6.5830 O         1 <0>         0.0063
  38294 WAT       -32.1820  -74.4160   -6.3330 O         1 <0>         0.0171
  38295 WAT       -32.1820  -74.4160   -6.0830 O         1 <0>         0.0366
  38296 WAT       -32.1820  -74.4160   -5.8330 O         1 <0>         0.0603
  38297 WAT       -32.1820  -74.4160   -5.5830 O         1 <0>         0.0767
  38298 WAT       -32.1820  -74.4160   -5.3330 O         1 <0>         0.0745
  38299 WAT       -32.1820  -74.4160   -5.0830 O         1 <0>         0.0544
  38300 WAT       -32.1820  -74.4160   -4.8330 O         1 <0>         0.0298
  38301 WAT       -32.1820  -74.4160   -4.5830 O         1 <0>         0.0123
  38302 WAT       -32.1820  -74.4160   -4.3330 O         1 <0>         0.0038
  38303 WAT       -32.1820  -74.4160   -4.0830 O         1 <0>         0.0011
  38304 WAT       -32.1820  -74.4160   -3.8330 O         1 <0>         0.0008
  38305 WAT       -32.1820  -74.4160   -3.5830 O         1 <0>         0.0022
  38306 WAT       -32.1820  -74.4160   -3.3330 O         1 <0>         0.0051
  38307 WAT       -32.1820  -74.4160   -3.0830 O         1 <0>         0.0074
  38308 WAT       -32.1820  -74.4160   -2.8330 O         1 <0>         0.0069
  38309 WAT       -32.1820  -74.4160   -2.5830 O         1 <0>         0.0040
  38310 WAT       -32.1820  -74.4160   -2.3330 O         1 <0>         0.0014
  38311 WAT       -32.1820  -74.4160   -2.0830 O         1 <0>         0.0003
  38312 WAT       -32.1820  -74.4160   -1.8330 O         1 <0>         0.0000
  38313 WAT       -32.1820  -74.4160   -1.5830 O         1 <0>         0.0000
  38314 WAT       -32.1820  -74.4160   -1.3330 O         1 <0>         0.0000
  38315 WAT       -32.1820  -74.4160   -1.0830 O         1 <0>         0.0000
  38316 WAT       -32.1820  -74.4160   -0.8330 O         1 <0>         0.0000
  38317 WAT       -32.1820  -74.4160   -0.5830 O         1 <0>         0.0000
  38318 WAT       -32.1820  -74.4160   -0.3330 O         1 <0>         0.0000
  38319 WAT       -32.1820  -74.4160   -0.0830 O         1 <0>         0.0000
  38320 WAT       -32.1820  -74.1660   -9.8330 O         1 <0>         0.0000
  38321 WAT       -32.1820  -74.1660   -9.5830 O         1 <0>         0.0000
  38322 WAT       -32.1820  -74.1660   -9.3330 O         1 <0>         0.0000
  38323 WAT       -32.1820  -74.1660   -9.0830 O         1 <0>         0.0000
  38324 WAT       -32.1820  -74.1660   -8.8330 O         1 <0>         0.0000
  38325 WAT       -32.1820  -74.1660   -8.5830 O         1 <0>         0.0000
  38326 WAT       -32.1820  -74.1660   -8.3330 O         1 <0>         0.0000
  38327 WAT       -32.1820  -74.1660   -8.0830 O         1 <0>         0.0000
  38328 WAT       -32.1820  -74.1660   -7.8330 O         1 <0>         0.0000
  38329 WAT       -32.1820  -74.1660   -7.5830 O         1 <0>         0.0000
  38330 WAT       -32.1820  -74.1660   -7.3330 O         1 <0>         0.0003
  38331 WAT       -32.1820  -74.1660   -7.0830 O         1 <0>         0.0013
  38332 WAT       -32.1820  -74.1660   -6.8330 O         1 <0>         0.0043
  38333 WAT       -32.1820  -74.1660   -6.5830 O         1 <0>         0.0113
  38334 WAT       -32.1820  -74.1660   -6.3330 O         1 <0>         0.0240
  38335 WAT       -32.1820  -74.1660   -6.0830 O         1 <0>         0.0428
  38336 WAT       -32.1820  -74.1660   -5.8330 O         1 <0>         0.0625
  38337 WAT       -32.1820  -74.1660   -5.5830 O         1 <0>         0.0735
  38338 WAT       -32.1820  -74.1660   -5.3330 O         1 <0>         0.0685
  38339 WAT       -32.1820  -74.1660   -5.0830 O         1 <0>         0.0497
  38340 WAT       -32.1820  -74.1660   -4.8330 O         1 <0>         0.0279
  38341 WAT       -32.1820  -74.1660   -4.5830 O         1 <0>         0.0121
  38342 WAT       -32.1820  -74.1660   -4.3330 O         1 <0>         0.0041
  38343 WAT       -32.1820  -74.1660   -4.0830 O         1 <0>         0.0016
  38344 WAT       -32.1820  -74.1660   -3.8330 O         1 <0>         0.0033
  38345 WAT       -32.1820  -74.1660   -3.5830 O         1 <0>         0.0101
  38346 WAT       -32.1820  -74.1660   -3.3330 O         1 <0>         0.0207
  38347 WAT       -32.1820  -74.1660   -3.0830 O         1 <0>         0.0278
  38348 WAT       -32.1820  -74.1660   -2.8330 O         1 <0>         0.0248
  38349 WAT       -32.1820  -74.1660   -2.5830 O         1 <0>         0.0145
  38350 WAT       -32.1820  -74.1660   -2.3330 O         1 <0>         0.0052
  38351 WAT       -32.1820  -74.1660   -2.0830 O         1 <0>         0.0010
  38352 WAT       -32.1820  -74.1660   -1.8330 O         1 <0>         0.0001
  38353 WAT       -32.1820  -74.1660   -1.5830 O         1 <0>         0.0000
  38354 WAT       -32.1820  -74.1660   -1.3330 O         1 <0>         0.0000
  38355 WAT       -32.1820  -74.1660   -1.0830 O         1 <0>         0.0000
  38356 WAT       -32.1820  -74.1660   -0.8330 O         1 <0>         0.0000
  38357 WAT       -32.1820  -74.1660   -0.5830 O         1 <0>         0.0000
  38358 WAT       -32.1820  -74.1660   -0.3330 O         1 <0>         0.0000
  38359 WAT       -32.1820  -74.1660   -0.0830 O         1 <0>         0.0000
  38360 WAT       -32.1820  -73.9160   -9.8330 O         1 <0>         0.0000
  38361 WAT       -32.1820  -73.9160   -9.5830 O         1 <0>         0.0000
  38362 WAT       -32.1820  -73.9160   -9.3330 O         1 <0>         0.0000
  38363 WAT       -32.1820  -73.9160   -9.0830 O         1 <0>         0.0000
  38364 WAT       -32.1820  -73.9160   -8.8330 O         1 <0>         0.0000
  38365 WAT       -32.1820  -73.9160   -8.5830 O         1 <0>         0.0000
  38366 WAT       -32.1820  -73.9160   -8.3330 O         1 <0>         0.0000
  38367 WAT       -32.1820  -73.9160   -8.0830 O         1 <0>         0.0000
  38368 WAT       -32.1820  -73.9160   -7.8330 O         1 <0>         0.0000
  38369 WAT       -32.1820  -73.9160   -7.5830 O         1 <0>         0.0001
  38370 WAT       -32.1820  -73.9160   -7.3330 O         1 <0>         0.0007
  38371 WAT       -32.1820  -73.9160   -7.0830 O         1 <0>         0.0030
  38372 WAT       -32.1820  -73.9160   -6.8330 O         1 <0>         0.0084
  38373 WAT       -32.1820  -73.9160   -6.5830 O         1 <0>         0.0179
  38374 WAT       -32.1820  -73.9160   -6.3330 O         1 <0>         0.0310
  38375 WAT       -32.1820  -73.9160   -6.0830 O         1 <0>         0.0455
  38376 WAT       -32.1820  -73.9160   -5.8330 O         1 <0>         0.0569
  38377 WAT       -32.1820  -73.9160   -5.5830 O         1 <0>         0.0597
  38378 WAT       -32.1820  -73.9160   -5.3330 O         1 <0>         0.0517
  38379 WAT       -32.1820  -73.9160   -5.0830 O         1 <0>         0.0364
  38380 WAT       -32.1820  -73.9160   -4.8330 O         1 <0>         0.0205
  38381 WAT       -32.1820  -73.9160   -4.5830 O         1 <0>         0.0091
  38382 WAT       -32.1820  -73.9160   -4.3330 O         1 <0>         0.0034
  38383 WAT       -32.1820  -73.9160   -4.0830 O         1 <0>         0.0027
  38384 WAT       -32.1820  -73.9160   -3.8330 O         1 <0>         0.0090
  38385 WAT       -32.1820  -73.9160   -3.5830 O         1 <0>         0.0262
  38386 WAT       -32.1820  -73.9160   -3.3330 O         1 <0>         0.0501
  38387 WAT       -32.1820  -73.9160   -3.0830 O         1 <0>         0.0643
  38388 WAT       -32.1820  -73.9160   -2.8330 O         1 <0>         0.0551
  38389 WAT       -32.1820  -73.9160   -2.5830 O         1 <0>         0.0312
  38390 WAT       -32.1820  -73.9160   -2.3330 O         1 <0>         0.0111
  38391 WAT       -32.1820  -73.9160   -2.0830 O         1 <0>         0.0021
  38392 WAT       -32.1820  -73.9160   -1.8330 O         1 <0>         0.0002
  38393 WAT       -32.1820  -73.9160   -1.5830 O         1 <0>         0.0000
  38394 WAT       -32.1820  -73.9160   -1.3330 O         1 <0>         0.0000
  38395 WAT       -32.1820  -73.9160   -1.0830 O         1 <0>         0.0000
  38396 WAT       -32.1820  -73.9160   -0.8330 O         1 <0>         0.0000
  38397 WAT       -32.1820  -73.9160   -0.5830 O         1 <0>         0.0000
  38398 WAT       -32.1820  -73.9160   -0.3330 O         1 <0>         0.0000
  38399 WAT       -32.1820  -73.9160   -0.0830 O         1 <0>         0.0000
  38400 WAT       -32.1820  -73.6660   -9.8330 O         1 <0>         0.0000
  38401 WAT       -32.1820  -73.6660   -9.5830 O         1 <0>         0.0000
  38402 WAT       -32.1820  -73.6660   -9.3330 O         1 <0>         0.0000
  38403 WAT       -32.1820  -73.6660   -9.0830 O         1 <0>         0.0000
  38404 WAT       -32.1820  -73.6660   -8.8330 O         1 <0>         0.0000
  38405 WAT       -32.1820  -73.6660   -8.5830 O         1 <0>         0.0000
  38406 WAT       -32.1820  -73.6660   -8.3330 O         1 <0>         0.0000
  38407 WAT       -32.1820  -73.6660   -8.0830 O         1 <0>         0.0000
  38408 WAT       -32.1820  -73.6660   -7.8330 O         1 <0>         0.0000
  38409 WAT       -32.1820  -73.6660   -7.5830 O         1 <0>         0.0002
  38410 WAT       -32.1820  -73.6660   -7.3330 O         1 <0>         0.0013
  38411 WAT       -32.1820  -73.6660   -7.0830 O         1 <0>         0.0049
  38412 WAT       -32.1820  -73.6660   -6.8330 O         1 <0>         0.0125
  38413 WAT       -32.1820  -73.6660   -6.5830 O         1 <0>         0.0236
  38414 WAT       -32.1820  -73.6660   -6.3330 O         1 <0>         0.0354
  38415 WAT       -32.1820  -73.6660   -6.0830 O         1 <0>         0.0441
  38416 WAT       -32.1820  -73.6660   -5.8330 O         1 <0>         0.0468
  38417 WAT       -32.1820  -73.6660   -5.5830 O         1 <0>         0.0425
  38418 WAT       -32.1820  -73.6660   -5.3330 O         1 <0>         0.0333
  38419 WAT       -32.1820  -73.6660   -5.0830 O         1 <0>         0.0220
  38420 WAT       -32.1820  -73.6660   -4.8330 O         1 <0>         0.0122
  38421 WAT       -32.1820  -73.6660   -4.5830 O         1 <0>         0.0056
  38422 WAT       -32.1820  -73.6660   -4.3330 O         1 <0>         0.0025
  38423 WAT       -32.1820  -73.6660   -4.0830 O         1 <0>         0.0040
  38424 WAT       -32.1820  -73.6660   -3.8330 O         1 <0>         0.0158
  38425 WAT       -32.1820  -73.6660   -3.5830 O         1 <0>         0.0442
  38426 WAT       -32.1820  -73.6660   -3.3330 O         1 <0>         0.0813
  38427 WAT       -32.1820  -73.6660   -3.0830 O         1 <0>         0.1001
  38428 WAT       -32.1820  -73.6660   -2.8330 O         1 <0>         0.0823
  38429 WAT       -32.1820  -73.6660   -2.5830 O         1 <0>         0.0447
  38430 WAT       -32.1820  -73.6660   -2.3330 O         1 <0>         0.0153
  38431 WAT       -32.1820  -73.6660   -2.0830 O         1 <0>         0.0027
  38432 WAT       -32.1820  -73.6660   -1.8330 O         1 <0>         0.0002
  38433 WAT       -32.1820  -73.6660   -1.5830 O         1 <0>         0.0000
  38434 WAT       -32.1820  -73.6660   -1.3330 O         1 <0>         0.0000
  38435 WAT       -32.1820  -73.6660   -1.0830 O         1 <0>         0.0000
  38436 WAT       -32.1820  -73.6660   -0.8330 O         1 <0>         0.0000
  38437 WAT       -32.1820  -73.6660   -0.5830 O         1 <0>         0.0000
  38438 WAT       -32.1820  -73.6660   -0.3330 O         1 <0>         0.0000
  38439 WAT       -32.1820  -73.6660   -0.0830 O         1 <0>         0.0000
  38440 WAT       -32.1820  -73.4160   -9.8330 O         1 <0>         0.0000
  38441 WAT       -32.1820  -73.4160   -9.5830 O         1 <0>         0.0000
  38442 WAT       -32.1820  -73.4160   -9.3330 O         1 <0>         0.0000
  38443 WAT       -32.1820  -73.4160   -9.0830 O         1 <0>         0.0000
  38444 WAT       -32.1820  -73.4160   -8.8330 O         1 <0>         0.0000
  38445 WAT       -32.1820  -73.4160   -8.5830 O         1 <0>         0.0000
  38446 WAT       -32.1820  -73.4160   -8.3330 O         1 <0>         0.0000
  38447 WAT       -32.1820  -73.4160   -8.0830 O         1 <0>         0.0000
  38448 WAT       -32.1820  -73.4160   -7.8330 O         1 <0>         0.0000
  38449 WAT       -32.1820  -73.4160   -7.5830 O         1 <0>         0.0003
  38450 WAT       -32.1820  -73.4160   -7.3330 O         1 <0>         0.0017
  38451 WAT       -32.1820  -73.4160   -7.0830 O         1 <0>         0.0059
  38452 WAT       -32.1820  -73.4160   -6.8330 O         1 <0>         0.0140
  38453 WAT       -32.1820  -73.4160   -6.5830 O         1 <0>         0.0245
  38454 WAT       -32.1820  -73.4160   -6.3330 O         1 <0>         0.0336
  38455 WAT       -32.1820  -73.4160   -6.0830 O         1 <0>         0.0375
  38456 WAT       -32.1820  -73.4160   -5.8330 O         1 <0>         0.0347
  38457 WAT       -32.1820  -73.4160   -5.5830 O         1 <0>         0.0274
  38458 WAT       -32.1820  -73.4160   -5.3330 O         1 <0>         0.0191
  38459 WAT       -32.1820  -73.4160   -5.0830 O         1 <0>         0.0117
  38460 WAT       -32.1820  -73.4160   -4.8330 O         1 <0>         0.0064
  38461 WAT       -32.1820  -73.4160   -4.5830 O         1 <0>         0.0032
  38462 WAT       -32.1820  -73.4160   -4.3330 O         1 <0>         0.0019
  38463 WAT       -32.1820  -73.4160   -4.0830 O         1 <0>         0.0049
  38464 WAT       -32.1820  -73.4160   -3.8330 O         1 <0>         0.0194
  38465 WAT       -32.1820  -73.4160   -3.5830 O         1 <0>         0.0521
  38466 WAT       -32.1820  -73.4160   -3.3330 O         1 <0>         0.0925
  38467 WAT       -32.1820  -73.4160   -3.0830 O         1 <0>         0.1095
  38468 WAT       -32.1820  -73.4160   -2.8330 O         1 <0>         0.0862
  38469 WAT       -32.1820  -73.4160   -2.5830 O         1 <0>         0.0445
  38470 WAT       -32.1820  -73.4160   -2.3330 O         1 <0>         0.0143
  38471 WAT       -32.1820  -73.4160   -2.0830 O         1 <0>         0.0023
  38472 WAT       -32.1820  -73.4160   -1.8330 O         1 <0>         0.0001
  38473 WAT       -32.1820  -73.4160   -1.5830 O         1 <0>         0.0000
  38474 WAT       -32.1820  -73.4160   -1.3330 O         1 <0>         0.0000
  38475 WAT       -32.1820  -73.4160   -1.0830 O         1 <0>         0.0000
  38476 WAT       -32.1820  -73.4160   -0.8330 O         1 <0>         0.0000
  38477 WAT       -32.1820  -73.4160   -0.5830 O         1 <0>         0.0000
  38478 WAT       -32.1820  -73.4160   -0.3330 O         1 <0>         0.0000
  38479 WAT       -32.1820  -73.4160   -0.0830 O         1 <0>         0.0000
  38480 WAT       -32.1820  -73.1660   -9.8330 O         1 <0>         0.0000
  38481 WAT       -32.1820  -73.1660   -9.5830 O         1 <0>         0.0000
  38482 WAT       -32.1820  -73.1660   -9.3330 O         1 <0>         0.0000
  38483 WAT       -32.1820  -73.1660   -9.0830 O         1 <0>         0.0000
  38484 WAT       -32.1820  -73.1660   -8.8330 O         1 <0>         0.0000
  38485 WAT       -32.1820  -73.1660   -8.5830 O         1 <0>         0.0000
  38486 WAT       -32.1820  -73.1660   -8.3330 O         1 <0>         0.0000
  38487 WAT       -32.1820  -73.1660   -8.0830 O         1 <0>         0.0000
  38488 WAT       -32.1820  -73.1660   -7.8330 O         1 <0>         0.0000
  38489 WAT       -32.1820  -73.1660   -7.5830 O         1 <0>         0.0003
  38490 WAT       -32.1820  -73.1660   -7.3330 O         1 <0>         0.0017
  38491 WAT       -32.1820  -73.1660   -7.0830 O         1 <0>         0.0053
  38492 WAT       -32.1820  -73.1660   -6.8330 O         1 <0>         0.0118
  38493 WAT       -32.1820  -73.1660   -6.5830 O         1 <0>         0.0195
  38494 WAT       -32.1820  -73.1660   -6.3330 O         1 <0>         0.0253
  38495 WAT       -32.1820  -73.1660   -6.0830 O         1 <0>         0.0265
  38496 WAT       -32.1820  -73.1660   -5.8330 O         1 <0>         0.0227
  38497 WAT       -32.1820  -73.1660   -5.5830 O         1 <0>         0.0161
  38498 WAT       -32.1820  -73.1660   -5.3330 O         1 <0>         0.0101
  38499 WAT       -32.1820  -73.1660   -5.0830 O         1 <0>         0.0060
  38500 WAT       -32.1820  -73.1660   -4.8330 O         1 <0>         0.0035
  38501 WAT       -32.1820  -73.1660   -4.5830 O         1 <0>         0.0021
  38502 WAT       -32.1820  -73.1660   -4.3330 O         1 <0>         0.0017
  38503 WAT       -32.1820  -73.1660   -4.0830 O         1 <0>         0.0048
  38504 WAT       -32.1820  -73.1660   -3.8330 O         1 <0>         0.0178
  38505 WAT       -32.1820  -73.1660   -3.5830 O         1 <0>         0.0460
  38506 WAT       -32.1820  -73.1660   -3.3330 O         1 <0>         0.0785
  38507 WAT       -32.1820  -73.1660   -3.0830 O         1 <0>         0.0891
  38508 WAT       -32.1820  -73.1660   -2.8330 O         1 <0>         0.0668
  38509 WAT       -32.1820  -73.1660   -2.5830 O         1 <0>         0.0324
  38510 WAT       -32.1820  -73.1660   -2.3330 O         1 <0>         0.0095
  38511 WAT       -32.1820  -73.1660   -2.0830 O         1 <0>         0.0012
  38512 WAT       -32.1820  -73.1660   -1.8330 O         1 <0>         0.0000
  38513 WAT       -32.1820  -73.1660   -1.5830 O         1 <0>         0.0000
  38514 WAT       -32.1820  -73.1660   -1.3330 O         1 <0>         0.0000
  38515 WAT       -32.1820  -73.1660   -1.0830 O         1 <0>         0.0000
  38516 WAT       -32.1820  -73.1660   -0.8330 O         1 <0>         0.0000
  38517 WAT       -32.1820  -73.1660   -0.5830 O         1 <0>         0.0000
  38518 WAT       -32.1820  -73.1660   -0.3330 O         1 <0>         0.0000
  38519 WAT       -32.1820  -73.1660   -0.0830 O         1 <0>         0.0000
  38520 WAT       -32.1820  -72.9160   -9.8330 O         1 <0>         0.0000
  38521 WAT       -32.1820  -72.9160   -9.5830 O         1 <0>         0.0000
  38522 WAT       -32.1820  -72.9160   -9.3330 O         1 <0>         0.0000
  38523 WAT       -32.1820  -72.9160   -9.0830 O         1 <0>         0.0000
  38524 WAT       -32.1820  -72.9160   -8.8330 O         1 <0>         0.0000
  38525 WAT       -32.1820  -72.9160   -8.5830 O         1 <0>         0.0000
  38526 WAT       -32.1820  -72.9160   -8.3330 O         1 <0>         0.0000
  38527 WAT       -32.1820  -72.9160   -8.0830 O         1 <0>         0.0000
  38528 WAT       -32.1820  -72.9160   -7.8330 O         1 <0>         0.0000
  38529 WAT       -32.1820  -72.9160   -7.5830 O         1 <0>         0.0003
  38530 WAT       -32.1820  -72.9160   -7.3330 O         1 <0>         0.0012
  38531 WAT       -32.1820  -72.9160   -7.0830 O         1 <0>         0.0037
  38532 WAT       -32.1820  -72.9160   -6.8330 O         1 <0>         0.0077
  38533 WAT       -32.1820  -72.9160   -6.5830 O         1 <0>         0.0119
  38534 WAT       -32.1820  -72.9160   -6.3330 O         1 <0>         0.0146
  38535 WAT       -32.1820  -72.9160   -6.0830 O         1 <0>         0.0149
  38536 WAT       -32.1820  -72.9160   -5.8330 O         1 <0>         0.0123
  38537 WAT       -32.1820  -72.9160   -5.5830 O         1 <0>         0.0085
  38538 WAT       -32.1820  -72.9160   -5.3330 O         1 <0>         0.0053
  38539 WAT       -32.1820  -72.9160   -5.0830 O         1 <0>         0.0034
  38540 WAT       -32.1820  -72.9160   -4.8330 O         1 <0>         0.0024
  38541 WAT       -32.1820  -72.9160   -4.5830 O         1 <0>         0.0019
  38542 WAT       -32.1820  -72.9160   -4.3330 O         1 <0>         0.0019
  38543 WAT       -32.1820  -72.9160   -4.0830 O         1 <0>         0.0043
  38544 WAT       -32.1820  -72.9160   -3.8330 O         1 <0>         0.0139
  38545 WAT       -32.1820  -72.9160   -3.5830 O         1 <0>         0.0338
  38546 WAT       -32.1820  -72.9160   -3.3330 O         1 <0>         0.0552
  38547 WAT       -32.1820  -72.9160   -3.0830 O         1 <0>         0.0598
  38548 WAT       -32.1820  -72.9160   -2.8330 O         1 <0>         0.0424
  38549 WAT       -32.1820  -72.9160   -2.5830 O         1 <0>         0.0192
  38550 WAT       -32.1820  -72.9160   -2.3330 O         1 <0>         0.0049
  38551 WAT       -32.1820  -72.9160   -2.0830 O         1 <0>         0.0005
  38552 WAT       -32.1820  -72.9160   -1.8330 O         1 <0>         0.0000
  38553 WAT       -32.1820  -72.9160   -1.5830 O         1 <0>         0.0000
  38554 WAT       -32.1820  -72.9160   -1.3330 O         1 <0>         0.0000
  38555 WAT       -32.1820  -72.9160   -1.0830 O         1 <0>         0.0000
  38556 WAT       -32.1820  -72.9160   -0.8330 O         1 <0>         0.0000
  38557 WAT       -32.1820  -72.9160   -0.5830 O         1 <0>         0.0000
  38558 WAT       -32.1820  -72.9160   -0.3330 O         1 <0>         0.0000
  38559 WAT       -32.1820  -72.9160   -0.0830 O         1 <0>         0.0000
  38560 WAT       -32.1820  -72.6660   -9.8330 O         1 <0>         0.0000
  38561 WAT       -32.1820  -72.6660   -9.5830 O         1 <0>         0.0000
  38562 WAT       -32.1820  -72.6660   -9.3330 O         1 <0>         0.0000
  38563 WAT       -32.1820  -72.6660   -9.0830 O         1 <0>         0.0000
  38564 WAT       -32.1820  -72.6660   -8.8330 O         1 <0>         0.0000
  38565 WAT       -32.1820  -72.6660   -8.5830 O         1 <0>         0.0000
  38566 WAT       -32.1820  -72.6660   -8.3330 O         1 <0>         0.0000
  38567 WAT       -32.1820  -72.6660   -8.0830 O         1 <0>         0.0000
  38568 WAT       -32.1820  -72.6660   -7.8330 O         1 <0>         0.0000
  38569 WAT       -32.1820  -72.6660   -7.5830 O         1 <0>         0.0002
  38570 WAT       -32.1820  -72.6660   -7.3330 O         1 <0>         0.0008
  38571 WAT       -32.1820  -72.6660   -7.0830 O         1 <0>         0.0021
  38572 WAT       -32.1820  -72.6660   -6.8330 O         1 <0>         0.0040
  38573 WAT       -32.1820  -72.6660   -6.5830 O         1 <0>         0.0057
  38574 WAT       -32.1820  -72.6660   -6.3330 O         1 <0>         0.0065
  38575 WAT       -32.1820  -72.6660   -6.0830 O         1 <0>         0.0064
  38576 WAT       -32.1820  -72.6660   -5.8330 O         1 <0>         0.0054
  38577 WAT       -32.1820  -72.6660   -5.5830 O         1 <0>         0.0039
  38578 WAT       -32.1820  -72.6660   -5.3330 O         1 <0>         0.0028
  38579 WAT       -32.1820  -72.6660   -5.0830 O         1 <0>         0.0024
  38580 WAT       -32.1820  -72.6660   -4.8330 O         1 <0>         0.0022
  38581 WAT       -32.1820  -72.6660   -4.5830 O         1 <0>         0.0021
  38582 WAT       -32.1820  -72.6660   -4.3330 O         1 <0>         0.0022
  38583 WAT       -32.1820  -72.6660   -4.0830 O         1 <0>         0.0038
  38584 WAT       -32.1820  -72.6660   -3.8330 O         1 <0>         0.0100
  38585 WAT       -32.1820  -72.6660   -3.5830 O         1 <0>         0.0226
  38586 WAT       -32.1820  -72.6660   -3.3330 O         1 <0>         0.0352
  38587 WAT       -32.1820  -72.6660   -3.0830 O         1 <0>         0.0363
  38588 WAT       -32.1820  -72.6660   -2.8330 O         1 <0>         0.0244
  38589 WAT       -32.1820  -72.6660   -2.5830 O         1 <0>         0.0102
  38590 WAT       -32.1820  -72.6660   -2.3330 O         1 <0>         0.0024
  38591 WAT       -32.1820  -72.6660   -2.0830 O         1 <0>         0.0002
  38592 WAT       -32.1820  -72.6660   -1.8330 O         1 <0>         0.0000
  38593 WAT       -32.1820  -72.6660   -1.5830 O         1 <0>         0.0000
  38594 WAT       -32.1820  -72.6660   -1.3330 O         1 <0>         0.0000
  38595 WAT       -32.1820  -72.6660   -1.0830 O         1 <0>         0.0000
  38596 WAT       -32.1820  -72.6660   -0.8330 O         1 <0>         0.0000
  38597 WAT       -32.1820  -72.6660   -0.5830 O         1 <0>         0.0000
  38598 WAT       -32.1820  -72.6660   -0.3330 O         1 <0>         0.0000
  38599 WAT       -32.1820  -72.6660   -0.0830 O         1 <0>         0.0000
  38600 WAT       -32.1820  -72.4160   -9.8330 O         1 <0>         0.0000
  38601 WAT       -32.1820  -72.4160   -9.5830 O         1 <0>         0.0000
  38602 WAT       -32.1820  -72.4160   -9.3330 O         1 <0>         0.0000
  38603 WAT       -32.1820  -72.4160   -9.0830 O         1 <0>         0.0000
  38604 WAT       -32.1820  -72.4160   -8.8330 O         1 <0>         0.0000
  38605 WAT       -32.1820  -72.4160   -8.5830 O         1 <0>         0.0000
  38606 WAT       -32.1820  -72.4160   -8.3330 O         1 <0>         0.0000
  38607 WAT       -32.1820  -72.4160   -8.0830 O         1 <0>         0.0000
  38608 WAT       -32.1820  -72.4160   -7.8330 O         1 <0>         0.0000
  38609 WAT       -32.1820  -72.4160   -7.5830 O         1 <0>         0.0001
  38610 WAT       -32.1820  -72.4160   -7.3330 O         1 <0>         0.0004
  38611 WAT       -32.1820  -72.4160   -7.0830 O         1 <0>         0.0011
  38612 WAT       -32.1820  -72.4160   -6.8330 O         1 <0>         0.0018
  38613 WAT       -32.1820  -72.4160   -6.5830 O         1 <0>         0.0023
  38614 WAT       -32.1820  -72.4160   -6.3330 O         1 <0>         0.0024
  38615 WAT       -32.1820  -72.4160   -6.0830 O         1 <0>         0.0024
  38616 WAT       -32.1820  -72.4160   -5.8330 O         1 <0>         0.0022
  38617 WAT       -32.1820  -72.4160   -5.5830 O         1 <0>         0.0020
  38618 WAT       -32.1820  -72.4160   -5.3330 O         1 <0>         0.0019
  38619 WAT       -32.1820  -72.4160   -5.0830 O         1 <0>         0.0019
  38620 WAT       -32.1820  -72.4160   -4.8330 O         1 <0>         0.0020
  38621 WAT       -32.1820  -72.4160   -4.5830 O         1 <0>         0.0021
  38622 WAT       -32.1820  -72.4160   -4.3330 O         1 <0>         0.0022
  38623 WAT       -32.1820  -72.4160   -4.0830 O         1 <0>         0.0030
  38624 WAT       -32.1820  -72.4160   -3.8330 O         1 <0>         0.0064
  38625 WAT       -32.1820  -72.4160   -3.5830 O         1 <0>         0.0132
  38626 WAT       -32.1820  -72.4160   -3.3330 O         1 <0>         0.0197
  38627 WAT       -32.1820  -72.4160   -3.0830 O         1 <0>         0.0194
  38628 WAT       -32.1820  -72.4160   -2.8330 O         1 <0>         0.0125
  38629 WAT       -32.1820  -72.4160   -2.5830 O         1 <0>         0.0051
  38630 WAT       -32.1820  -72.4160   -2.3330 O         1 <0>         0.0011
  38631 WAT       -32.1820  -72.4160   -2.0830 O         1 <0>         0.0001
  38632 WAT       -32.1820  -72.4160   -1.8330 O         1 <0>         0.0000
  38633 WAT       -32.1820  -72.4160   -1.5830 O         1 <0>         0.0000
  38634 WAT       -32.1820  -72.4160   -1.3330 O         1 <0>         0.0000
  38635 WAT       -32.1820  -72.4160   -1.0830 O         1 <0>         0.0000
  38636 WAT       -32.1820  -72.4160   -0.8330 O         1 <0>         0.0000
  38637 WAT       -32.1820  -72.4160   -0.5830 O         1 <0>         0.0000
  38638 WAT       -32.1820  -72.4160   -0.3330 O         1 <0>         0.0000
  38639 WAT       -32.1820  -72.4160   -0.0830 O         1 <0>         0.0000
  38640 WAT       -32.1820  -72.1660   -9.8330 O         1 <0>         0.0000
  38641 WAT       -32.1820  -72.1660   -9.5830 O         1 <0>         0.0000
  38642 WAT       -32.1820  -72.1660   -9.3330 O         1 <0>         0.0000
  38643 WAT       -32.1820  -72.1660   -9.0830 O         1 <0>         0.0000
  38644 WAT       -32.1820  -72.1660   -8.8330 O         1 <0>         0.0000
  38645 WAT       -32.1820  -72.1660   -8.5830 O         1 <0>         0.0000
  38646 WAT       -32.1820  -72.1660   -8.3330 O         1 <0>         0.0000
  38647 WAT       -32.1820  -72.1660   -8.0830 O         1 <0>         0.0000
  38648 WAT       -32.1820  -72.1660   -7.8330 O         1 <0>         0.0000
  38649 WAT       -32.1820  -72.1660   -7.5830 O         1 <0>         0.0001
  38650 WAT       -32.1820  -72.1660   -7.3330 O         1 <0>         0.0002
  38651 WAT       -32.1820  -72.1660   -7.0830 O         1 <0>         0.0005
  38652 WAT       -32.1820  -72.1660   -6.8330 O         1 <0>         0.0008
  38653 WAT       -32.1820  -72.1660   -6.5830 O         1 <0>         0.0010
  38654 WAT       -32.1820  -72.1660   -6.3330 O         1 <0>         0.0013
  38655 WAT       -32.1820  -72.1660   -6.0830 O         1 <0>         0.0017
  38656 WAT       -32.1820  -72.1660   -5.8330 O         1 <0>         0.0020
  38657 WAT       -32.1820  -72.1660   -5.5830 O         1 <0>         0.0019
  38658 WAT       -32.1820  -72.1660   -5.3330 O         1 <0>         0.0017
  38659 WAT       -32.1820  -72.1660   -5.0830 O         1 <0>         0.0016
  38660 WAT       -32.1820  -72.1660   -4.8330 O         1 <0>         0.0017
  38661 WAT       -32.1820  -72.1660   -4.5830 O         1 <0>         0.0018
  38662 WAT       -32.1820  -72.1660   -4.3330 O         1 <0>         0.0017
  38663 WAT       -32.1820  -72.1660   -4.0830 O         1 <0>         0.0019
  38664 WAT       -32.1820  -72.1660   -3.8330 O         1 <0>         0.0033
  38665 WAT       -32.1820  -72.1660   -3.5830 O         1 <0>         0.0061
  38666 WAT       -32.1820  -72.1660   -3.3330 O         1 <0>         0.0087
  38667 WAT       -32.1820  -72.1660   -3.0830 O         1 <0>         0.0083
  38668 WAT       -32.1820  -72.1660   -2.8330 O         1 <0>         0.0051
  38669 WAT       -32.1820  -72.1660   -2.5830 O         1 <0>         0.0019
  38670 WAT       -32.1820  -72.1660   -2.3330 O         1 <0>         0.0004
  38671 WAT       -32.1820  -72.1660   -2.0830 O         1 <0>         0.0000
  38672 WAT       -32.1820  -72.1660   -1.8330 O         1 <0>         0.0000
  38673 WAT       -32.1820  -72.1660   -1.5830 O         1 <0>         0.0000
  38674 WAT       -32.1820  -72.1660   -1.3330 O         1 <0>         0.0000
  38675 WAT       -32.1820  -72.1660   -1.0830 O         1 <0>         0.0000
  38676 WAT       -32.1820  -72.1660   -0.8330 O         1 <0>         0.0000
  38677 WAT       -32.1820  -72.1660   -0.5830 O         1 <0>         0.0000
  38678 WAT       -32.1820  -72.1660   -0.3330 O         1 <0>         0.0000
  38679 WAT       -32.1820  -72.1660   -0.0830 O         1 <0>         0.0000
  38680 WAT       -32.1820  -71.9160   -9.8330 O         1 <0>         0.0000
  38681 WAT       -32.1820  -71.9160   -9.5830 O         1 <0>         0.0000
  38682 WAT       -32.1820  -71.9160   -9.3330 O         1 <0>         0.0000
  38683 WAT       -32.1820  -71.9160   -9.0830 O         1 <0>         0.0000
  38684 WAT       -32.1820  -71.9160   -8.8330 O         1 <0>         0.0000
  38685 WAT       -32.1820  -71.9160   -8.5830 O         1 <0>         0.0000
  38686 WAT       -32.1820  -71.9160   -8.3330 O         1 <0>         0.0000
  38687 WAT       -32.1820  -71.9160   -8.0830 O         1 <0>         0.0000
  38688 WAT       -32.1820  -71.9160   -7.8330 O         1 <0>         0.0000
  38689 WAT       -32.1820  -71.9160   -7.5830 O         1 <0>         0.0001
  38690 WAT       -32.1820  -71.9160   -7.3330 O         1 <0>         0.0001
  38691 WAT       -32.1820  -71.9160   -7.0830 O         1 <0>         0.0003
  38692 WAT       -32.1820  -71.9160   -6.8330 O         1 <0>         0.0006
  38693 WAT       -32.1820  -71.9160   -6.5830 O         1 <0>         0.0016
  38694 WAT       -32.1820  -71.9160   -6.3330 O         1 <0>         0.0036
  38695 WAT       -32.1820  -71.9160   -6.0830 O         1 <0>         0.0053
  38696 WAT       -32.1820  -71.9160   -5.8330 O         1 <0>         0.0052
  38697 WAT       -32.1820  -71.9160   -5.5830 O         1 <0>         0.0036
  38698 WAT       -32.1820  -71.9160   -5.3330 O         1 <0>         0.0021
  38699 WAT       -32.1820  -71.9160   -5.0830 O         1 <0>         0.0014
  38700 WAT       -32.1820  -71.9160   -4.8330 O         1 <0>         0.0012
  38701 WAT       -32.1820  -71.9160   -4.5830 O         1 <0>         0.0011
  38702 WAT       -32.1820  -71.9160   -4.3330 O         1 <0>         0.0010
  38703 WAT       -32.1820  -71.9160   -4.0830 O         1 <0>         0.0009
  38704 WAT       -32.1820  -71.9160   -3.8330 O         1 <0>         0.0013
  38705 WAT       -32.1820  -71.9160   -3.5830 O         1 <0>         0.0021
  38706 WAT       -32.1820  -71.9160   -3.3330 O         1 <0>         0.0028
  38707 WAT       -32.1820  -71.9160   -3.0830 O         1 <0>         0.0025
  38708 WAT       -32.1820  -71.9160   -2.8330 O         1 <0>         0.0015
  38709 WAT       -32.1820  -71.9160   -2.5830 O         1 <0>         0.0005
  38710 WAT       -32.1820  -71.9160   -2.3330 O         1 <0>         0.0001
  38711 WAT       -32.1820  -71.9160   -2.0830 O         1 <0>         0.0000
  38712 WAT       -32.1820  -71.9160   -1.8330 O         1 <0>         0.0000
  38713 WAT       -32.1820  -71.9160   -1.5830 O         1 <0>         0.0000
  38714 WAT       -32.1820  -71.9160   -1.3330 O         1 <0>         0.0000
  38715 WAT       -32.1820  -71.9160   -1.0830 O         1 <0>         0.0000
  38716 WAT       -32.1820  -71.9160   -0.8330 O         1 <0>         0.0000
  38717 WAT       -32.1820  -71.9160   -0.5830 O         1 <0>         0.0000
  38718 WAT       -32.1820  -71.9160   -0.3330 O         1 <0>         0.0000
  38719 WAT       -32.1820  -71.9160   -0.0830 O         1 <0>         0.0000
  38720 WAT       -32.1820  -71.6660   -9.8330 O         1 <0>         0.0000
  38721 WAT       -32.1820  -71.6660   -9.5830 O         1 <0>         0.0000
  38722 WAT       -32.1820  -71.6660   -9.3330 O         1 <0>         0.0000
  38723 WAT       -32.1820  -71.6660   -9.0830 O         1 <0>         0.0000
  38724 WAT       -32.1820  -71.6660   -8.8330 O         1 <0>         0.0000
  38725 WAT       -32.1820  -71.6660   -8.5830 O         1 <0>         0.0000
  38726 WAT       -32.1820  -71.6660   -8.3330 O         1 <0>         0.0000
  38727 WAT       -32.1820  -71.6660   -8.0830 O         1 <0>         0.0000
  38728 WAT       -32.1820  -71.6660   -7.8330 O         1 <0>         0.0000
  38729 WAT       -32.1820  -71.6660   -7.5830 O         1 <0>         0.0001
  38730 WAT       -32.1820  -71.6660   -7.3330 O         1 <0>         0.0002
  38731 WAT       -32.1820  -71.6660   -7.0830 O         1 <0>         0.0004
  38732 WAT       -32.1820  -71.6660   -6.8330 O         1 <0>         0.0017
  38733 WAT       -32.1820  -71.6660   -6.5830 O         1 <0>         0.0064
  38734 WAT       -32.1820  -71.6660   -6.3330 O         1 <0>         0.0139
  38735 WAT       -32.1820  -71.6660   -6.0830 O         1 <0>         0.0187
  38736 WAT       -32.1820  -71.6660   -5.8330 O         1 <0>         0.0159
  38737 WAT       -32.1820  -71.6660   -5.5830 O         1 <0>         0.0089
  38738 WAT       -32.1820  -71.6660   -5.3330 O         1 <0>         0.0034
  38739 WAT       -32.1820  -71.6660   -5.0830 O         1 <0>         0.0012
  38740 WAT       -32.1820  -71.6660   -4.8330 O         1 <0>         0.0007
  38741 WAT       -32.1820  -71.6660   -4.5830 O         1 <0>         0.0005
  38742 WAT       -32.1820  -71.6660   -4.3330 O         1 <0>         0.0004
  38743 WAT       -32.1820  -71.6660   -4.0830 O         1 <0>         0.0003
  38744 WAT       -32.1820  -71.6660   -3.8330 O         1 <0>         0.0004
  38745 WAT       -32.1820  -71.6660   -3.5830 O         1 <0>         0.0005
  38746 WAT       -32.1820  -71.6660   -3.3330 O         1 <0>         0.0007
  38747 WAT       -32.1820  -71.6660   -3.0830 O         1 <0>         0.0006
  38748 WAT       -32.1820  -71.6660   -2.8330 O         1 <0>         0.0003
  38749 WAT       -32.1820  -71.6660   -2.5830 O         1 <0>         0.0001
  38750 WAT       -32.1820  -71.6660   -2.3330 O         1 <0>         0.0000
  38751 WAT       -32.1820  -71.6660   -2.0830 O         1 <0>         0.0000
  38752 WAT       -32.1820  -71.6660   -1.8330 O         1 <0>         0.0000
  38753 WAT       -32.1820  -71.6660   -1.5830 O         1 <0>         0.0000
  38754 WAT       -32.1820  -71.6660   -1.3330 O         1 <0>         0.0000
  38755 WAT       -32.1820  -71.6660   -1.0830 O         1 <0>         0.0000
  38756 WAT       -32.1820  -71.6660   -0.8330 O         1 <0>         0.0000
  38757 WAT       -32.1820  -71.6660   -0.5830 O         1 <0>         0.0000
  38758 WAT       -32.1820  -71.6660   -0.3330 O         1 <0>         0.0000
  38759 WAT       -32.1820  -71.6660   -0.0830 O         1 <0>         0.0000
  38760 WAT       -32.1820  -71.4160   -9.8330 O         1 <0>         0.0000
  38761 WAT       -32.1820  -71.4160   -9.5830 O         1 <0>         0.0000
  38762 WAT       -32.1820  -71.4160   -9.3330 O         1 <0>         0.0000
  38763 WAT       -32.1820  -71.4160   -9.0830 O         1 <0>         0.0000
  38764 WAT       -32.1820  -71.4160   -8.8330 O         1 <0>         0.0000
  38765 WAT       -32.1820  -71.4160   -8.5830 O         1 <0>         0.0000
  38766 WAT       -32.1820  -71.4160   -8.3330 O         1 <0>         0.0000
  38767 WAT       -32.1820  -71.4160   -8.0830 O         1 <0>         0.0000
  38768 WAT       -32.1820  -71.4160   -7.8330 O         1 <0>         0.0001
  38769 WAT       -32.1820  -71.4160   -7.5830 O         1 <0>         0.0002
  38770 WAT       -32.1820  -71.4160   -7.3330 O         1 <0>         0.0005
  38771 WAT       -32.1820  -71.4160   -7.0830 O         1 <0>         0.0014
  38772 WAT       -32.1820  -71.4160   -6.8330 O         1 <0>         0.0065
  38773 WAT       -32.1820  -71.4160   -6.5830 O         1 <0>         0.0212
  38774 WAT       -32.1820  -71.4160   -6.3330 O         1 <0>         0.0416
  38775 WAT       -32.1820  -71.4160   -6.0830 O         1 <0>         0.0512
  38776 WAT       -32.1820  -71.4160   -5.8330 O         1 <0>         0.0401
  38777 WAT       -32.1820  -71.4160   -5.5830 O         1 <0>         0.0200
  38778 WAT       -32.1820  -71.4160   -5.3330 O         1 <0>         0.0063
  38779 WAT       -32.1820  -71.4160   -5.0830 O         1 <0>         0.0014
  38780 WAT       -32.1820  -71.4160   -4.8330 O         1 <0>         0.0003
  38781 WAT       -32.1820  -71.4160   -4.5830 O         1 <0>         0.0001
  38782 WAT       -32.1820  -71.4160   -4.3330 O         1 <0>         0.0001
  38783 WAT       -32.1820  -71.4160   -4.0830 O         1 <0>         0.0001
  38784 WAT       -32.1820  -71.4160   -3.8330 O         1 <0>         0.0001
  38785 WAT       -32.1820  -71.4160   -3.5830 O         1 <0>         0.0001
  38786 WAT       -32.1820  -71.4160   -3.3330 O         1 <0>         0.0001
  38787 WAT       -32.1820  -71.4160   -3.0830 O         1 <0>         0.0001
  38788 WAT       -32.1820  -71.4160   -2.8330 O         1 <0>         0.0001
  38789 WAT       -32.1820  -71.4160   -2.5830 O         1 <0>         0.0000
  38790 WAT       -32.1820  -71.4160   -2.3330 O         1 <0>         0.0000
  38791 WAT       -32.1820  -71.4160   -2.0830 O         1 <0>         0.0000
  38792 WAT       -32.1820  -71.4160   -1.8330 O         1 <0>         0.0000
  38793 WAT       -32.1820  -71.4160   -1.5830 O         1 <0>         0.0000
  38794 WAT       -32.1820  -71.4160   -1.3330 O         1 <0>         0.0000
  38795 WAT       -32.1820  -71.4160   -1.0830 O         1 <0>         0.0000
  38796 WAT       -32.1820  -71.4160   -0.8330 O         1 <0>         0.0000
  38797 WAT       -32.1820  -71.4160   -0.5830 O         1 <0>         0.0000
  38798 WAT       -32.1820  -71.4160   -0.3330 O         1 <0>         0.0000
  38799 WAT       -32.1820  -71.4160   -0.0830 O         1 <0>         0.0000
  38800 WAT       -32.1820  -71.1660   -9.8330 O         1 <0>         0.0000
  38801 WAT       -32.1820  -71.1660   -9.5830 O         1 <0>         0.0000
  38802 WAT       -32.1820  -71.1660   -9.3330 O         1 <0>         0.0000
  38803 WAT       -32.1820  -71.1660   -9.0830 O         1 <0>         0.0000
  38804 WAT       -32.1820  -71.1660   -8.8330 O         1 <0>         0.0000
  38805 WAT       -32.1820  -71.1660   -8.5830 O         1 <0>         0.0000
  38806 WAT       -32.1820  -71.1660   -8.3330 O         1 <0>         0.0000
  38807 WAT       -32.1820  -71.1660   -8.0830 O         1 <0>         0.0000
  38808 WAT       -32.1820  -71.1660   -7.8330 O         1 <0>         0.0002
  38809 WAT       -32.1820  -71.1660   -7.5830 O         1 <0>         0.0006
  38810 WAT       -32.1820  -71.1660   -7.3330 O         1 <0>         0.0012
  38811 WAT       -32.1820  -71.1660   -7.0830 O         1 <0>         0.0038
  38812 WAT       -32.1820  -71.1660   -6.8330 O         1 <0>         0.0175
  38813 WAT       -32.1820  -71.1660   -6.5830 O         1 <0>         0.0500
  38814 WAT       -32.1820  -71.1660   -6.3330 O         1 <0>         0.0906
  38815 WAT       -32.1820  -71.1660   -6.0830 O         1 <0>         0.1045
  38816 WAT       -32.1820  -71.1660   -5.8330 O         1 <0>         0.0765
  38817 WAT       -32.1820  -71.1660   -5.5830 O         1 <0>         0.0353
  38818 WAT       -32.1820  -71.1660   -5.3330 O         1 <0>         0.0101
  38819 WAT       -32.1820  -71.1660   -5.0830 O         1 <0>         0.0016
  38820 WAT       -32.1820  -71.1660   -4.8330 O         1 <0>         0.0002
  38821 WAT       -32.1820  -71.1660   -4.5830 O         1 <0>         0.0000
  38822 WAT       -32.1820  -71.1660   -4.3330 O         1 <0>         0.0000
  38823 WAT       -32.1820  -71.1660   -4.0830 O         1 <0>         0.0000
  38824 WAT       -32.1820  -71.1660   -3.8330 O         1 <0>         0.0000
  38825 WAT       -32.1820  -71.1660   -3.5830 O         1 <0>         0.0000
  38826 WAT       -32.1820  -71.1660   -3.3330 O         1 <0>         0.0000
  38827 WAT       -32.1820  -71.1660   -3.0830 O         1 <0>         0.0000
  38828 WAT       -32.1820  -71.1660   -2.8330 O         1 <0>         0.0000
  38829 WAT       -32.1820  -71.1660   -2.5830 O         1 <0>         0.0000
  38830 WAT       -32.1820  -71.1660   -2.3330 O         1 <0>         0.0000
  38831 WAT       -32.1820  -71.1660   -2.0830 O         1 <0>         0.0000
  38832 WAT       -32.1820  -71.1660   -1.8330 O         1 <0>         0.0000
  38833 WAT       -32.1820  -71.1660   -1.5830 O         1 <0>         0.0000
  38834 WAT       -32.1820  -71.1660   -1.3330 O         1 <0>         0.0000
  38835 WAT       -32.1820  -71.1660   -1.0830 O         1 <0>         0.0000
  38836 WAT       -32.1820  -71.1660   -0.8330 O         1 <0>         0.0000
  38837 WAT       -32.1820  -71.1660   -0.5830 O         1 <0>         0.0000
  38838 WAT       -32.1820  -71.1660   -0.3330 O         1 <0>         0.0000
  38839 WAT       -32.1820  -71.1660   -0.0830 O         1 <0>         0.0000
  38840 WAT       -32.1820  -70.9160   -9.8330 O         1 <0>         0.0000
  38841 WAT       -32.1820  -70.9160   -9.5830 O         1 <0>         0.0000
  38842 WAT       -32.1820  -70.9160   -9.3330 O         1 <0>         0.0000
  38843 WAT       -32.1820  -70.9160   -9.0830 O         1 <0>         0.0000
  38844 WAT       -32.1820  -70.9160   -8.8330 O         1 <0>         0.0000
  38845 WAT       -32.1820  -70.9160   -8.5830 O         1 <0>         0.0000
  38846 WAT       -32.1820  -70.9160   -8.3330 O         1 <0>         0.0000
  38847 WAT       -32.1820  -70.9160   -8.0830 O         1 <0>         0.0001
  38848 WAT       -32.1820  -70.9160   -7.8330 O         1 <0>         0.0004
  38849 WAT       -32.1820  -70.9160   -7.5830 O         1 <0>         0.0010
  38850 WAT       -32.1820  -70.9160   -7.3330 O         1 <0>         0.0022
  38851 WAT       -32.1820  -70.9160   -7.0830 O         1 <0>         0.0080
  38852 WAT       -32.1820  -70.9160   -6.8330 O         1 <0>         0.0330
  38853 WAT       -32.1820  -70.9160   -6.5830 O         1 <0>         0.0865
  38854 WAT       -32.1820  -70.9160   -6.3330 O         1 <0>         0.1463
  38855 WAT       -32.1820  -70.9160   -6.0830 O         1 <0>         0.1585
  38856 WAT       -32.1820  -70.9160   -5.8330 O         1 <0>         0.1091
  38857 WAT       -32.1820  -70.9160   -5.5830 O         1 <0>         0.0472
  38858 WAT       -32.1820  -70.9160   -5.3330 O         1 <0>         0.0124
  38859 WAT       -32.1820  -70.9160   -5.0830 O         1 <0>         0.0016
  38860 WAT       -32.1820  -70.9160   -4.8330 O         1 <0>         0.0001
  38861 WAT       -32.1820  -70.9160   -4.5830 O         1 <0>         0.0000
  38862 WAT       -32.1820  -70.9160   -4.3330 O         1 <0>         0.0000
  38863 WAT       -32.1820  -70.9160   -4.0830 O         1 <0>         0.0000
  38864 WAT       -32.1820  -70.9160   -3.8330 O         1 <0>         0.0000
  38865 WAT       -32.1820  -70.9160   -3.5830 O         1 <0>         0.0000
  38866 WAT       -32.1820  -70.9160   -3.3330 O         1 <0>         0.0000
  38867 WAT       -32.1820  -70.9160   -3.0830 O         1 <0>         0.0000
  38868 WAT       -32.1820  -70.9160   -2.8330 O         1 <0>         0.0000
  38869 WAT       -32.1820  -70.9160   -2.5830 O         1 <0>         0.0000
  38870 WAT       -32.1820  -70.9160   -2.3330 O         1 <0>         0.0000
  38871 WAT       -32.1820  -70.9160   -2.0830 O         1 <0>         0.0000
  38872 WAT       -32.1820  -70.9160   -1.8330 O         1 <0>         0.0000
  38873 WAT       -32.1820  -70.9160   -1.5830 O         1 <0>         0.0000
  38874 WAT       -32.1820  -70.9160   -1.3330 O         1 <0>         0.0000
  38875 WAT       -32.1820  -70.9160   -1.0830 O         1 <0>         0.0000
  38876 WAT       -32.1820  -70.9160   -0.8330 O         1 <0>         0.0000
  38877 WAT       -32.1820  -70.9160   -0.5830 O         1 <0>         0.0000
  38878 WAT       -32.1820  -70.9160   -0.3330 O         1 <0>         0.0000
  38879 WAT       -32.1820  -70.9160   -0.0830 O         1 <0>         0.0000
  38880 WAT       -32.1820  -70.6660   -9.8330 O         1 <0>         0.0000
  38881 WAT       -32.1820  -70.6660   -9.5830 O         1 <0>         0.0000
  38882 WAT       -32.1820  -70.6660   -9.3330 O         1 <0>         0.0000
  38883 WAT       -32.1820  -70.6660   -9.0830 O         1 <0>         0.0000
  38884 WAT       -32.1820  -70.6660   -8.8330 O         1 <0>         0.0000
  38885 WAT       -32.1820  -70.6660   -8.5830 O         1 <0>         0.0000
  38886 WAT       -32.1820  -70.6660   -8.3330 O         1 <0>         0.0000
  38887 WAT       -32.1820  -70.6660   -8.0830 O         1 <0>         0.0002
  38888 WAT       -32.1820  -70.6660   -7.8330 O         1 <0>         0.0006
  38889 WAT       -32.1820  -70.6660   -7.5830 O         1 <0>         0.0014
  38890 WAT       -32.1820  -70.6660   -7.3330 O         1 <0>         0.0032
  38891 WAT       -32.1820  -70.6660   -7.0830 O         1 <0>         0.0124
  38892 WAT       -32.1820  -70.6660   -6.8330 O         1 <0>         0.0465
  38893 WAT       -32.1820  -70.6660   -6.5830 O         1 <0>         0.1125
  38894 WAT       -32.1820  -70.6660   -6.3330 O         1 <0>         0.1775
  38895 WAT       -32.1820  -70.6660   -6.0830 O         1 <0>         0.1802
  38896 WAT       -32.1820  -70.6660   -5.8330 O         1 <0>         0.1165
  38897 WAT       -32.1820  -70.6660   -5.5830 O         1 <0>         0.0472
  38898 WAT       -32.1820  -70.6660   -5.3330 O         1 <0>         0.0112
  38899 WAT       -32.1820  -70.6660   -5.0830 O         1 <0>         0.0012
  38900 WAT       -32.1820  -70.6660   -4.8330 O         1 <0>         0.0000
  38901 WAT       -32.1820  -70.6660   -4.5830 O         1 <0>         0.0000
  38902 WAT       -32.1820  -70.6660   -4.3330 O         1 <0>         0.0000
  38903 WAT       -32.1820  -70.6660   -4.0830 O         1 <0>         0.0000
  38904 WAT       -32.1820  -70.6660   -3.8330 O         1 <0>         0.0000
  38905 WAT       -32.1820  -70.6660   -3.5830 O         1 <0>         0.0000
  38906 WAT       -32.1820  -70.6660   -3.3330 O         1 <0>         0.0000
  38907 WAT       -32.1820  -70.6660   -3.0830 O         1 <0>         0.0000
  38908 WAT       -32.1820  -70.6660   -2.8330 O         1 <0>         0.0000
  38909 WAT       -32.1820  -70.6660   -2.5830 O         1 <0>         0.0000
  38910 WAT       -32.1820  -70.6660   -2.3330 O         1 <0>         0.0000
  38911 WAT       -32.1820  -70.6660   -2.0830 O         1 <0>         0.0000
  38912 WAT       -32.1820  -70.6660   -1.8330 O         1 <0>         0.0000
  38913 WAT       -32.1820  -70.6660   -1.5830 O         1 <0>         0.0000
  38914 WAT       -32.1820  -70.6660   -1.3330 O         1 <0>         0.0000
  38915 WAT       -32.1820  -70.6660   -1.0830 O         1 <0>         0.0000
  38916 WAT       -32.1820  -70.6660   -0.8330 O         1 <0>         0.0000
  38917 WAT       -32.1820  -70.6660   -0.5830 O         1 <0>         0.0000
  38918 WAT       -32.1820  -70.6660   -0.3330 O         1 <0>         0.0000
  38919 WAT       -32.1820  -70.6660   -0.0830 O         1 <0>         0.0000
  38920 WAT       -32.1820  -70.4160   -9.8330 O         1 <0>         0.0000
  38921 WAT       -32.1820  -70.4160   -9.5830 O         1 <0>         0.0000
  38922 WAT       -32.1820  -70.4160   -9.3330 O         1 <0>         0.0000
  38923 WAT       -32.1820  -70.4160   -9.0830 O         1 <0>         0.0000
  38924 WAT       -32.1820  -70.4160   -8.8330 O         1 <0>         0.0000
  38925 WAT       -32.1820  -70.4160   -8.5830 O         1 <0>         0.0000
  38926 WAT       -32.1820  -70.4160   -8.3330 O         1 <0>         0.0001
  38927 WAT       -32.1820  -70.4160   -8.0830 O         1 <0>         0.0002
  38928 WAT       -32.1820  -70.4160   -7.8330 O         1 <0>         0.0007
  38929 WAT       -32.1820  -70.4160   -7.5830 O         1 <0>         0.0016
  38930 WAT       -32.1820  -70.4160   -7.3330 O         1 <0>         0.0036
  38931 WAT       -32.1820  -70.4160   -7.0830 O         1 <0>         0.0142
  38932 WAT       -32.1820  -70.4160   -6.8330 O         1 <0>         0.0493
  38933 WAT       -32.1820  -70.4160   -6.5830 O         1 <0>         0.1110
  38934 WAT       -32.1820  -70.4160   -6.3330 O         1 <0>         0.1636
  38935 WAT       -32.1820  -70.4160   -6.0830 O         1 <0>         0.1556
  38936 WAT       -32.1820  -70.4160   -5.8330 O         1 <0>         0.0943
  38937 WAT       -32.1820  -70.4160   -5.5830 O         1 <0>         0.0355
  38938 WAT       -32.1820  -70.4160   -5.3330 O         1 <0>         0.0074
  38939 WAT       -32.1820  -70.4160   -5.0830 O         1 <0>         0.0006
  38940 WAT       -32.1820  -70.4160   -4.8330 O         1 <0>         0.0000
  38941 WAT       -32.1820  -70.4160   -4.5830 O         1 <0>         0.0000
  38942 WAT       -32.1820  -70.4160   -4.3330 O         1 <0>         0.0000
  38943 WAT       -32.1820  -70.4160   -4.0830 O         1 <0>         0.0000
  38944 WAT       -32.1820  -70.4160   -3.8330 O         1 <0>         0.0000
  38945 WAT       -32.1820  -70.4160   -3.5830 O         1 <0>         0.0000
  38946 WAT       -32.1820  -70.4160   -3.3330 O         1 <0>         0.0000
  38947 WAT       -32.1820  -70.4160   -3.0830 O         1 <0>         0.0000
  38948 WAT       -32.1820  -70.4160   -2.8330 O         1 <0>         0.0000
  38949 WAT       -32.1820  -70.4160   -2.5830 O         1 <0>         0.0000
  38950 WAT       -32.1820  -70.4160   -2.3330 O         1 <0>         0.0000
  38951 WAT       -32.1820  -70.4160   -2.0830 O         1 <0>         0.0000
  38952 WAT       -32.1820  -70.4160   -1.8330 O         1 <0>         0.0000
  38953 WAT       -32.1820  -70.4160   -1.5830 O         1 <0>         0.0000
  38954 WAT       -32.1820  -70.4160   -1.3330 O         1 <0>         0.0000
  38955 WAT       -32.1820  -70.4160   -1.0830 O         1 <0>         0.0000
  38956 WAT       -32.1820  -70.4160   -0.8330 O         1 <0>         0.0000
  38957 WAT       -32.1820  -70.4160   -0.5830 O         1 <0>         0.0000
  38958 WAT       -32.1820  -70.4160   -0.3330 O         1 <0>         0.0000
  38959 WAT       -32.1820  -70.4160   -0.0830 O         1 <0>         0.0000
  38960 WAT       -32.1820  -70.1660   -9.8330 O         1 <0>         0.0000
  38961 WAT       -32.1820  -70.1660   -9.5830 O         1 <0>         0.0000
  38962 WAT       -32.1820  -70.1660   -9.3330 O         1 <0>         0.0000
  38963 WAT       -32.1820  -70.1660   -9.0830 O         1 <0>         0.0000
  38964 WAT       -32.1820  -70.1660   -8.8330 O         1 <0>         0.0000
  38965 WAT       -32.1820  -70.1660   -8.5830 O         1 <0>         0.0000
  38966 WAT       -32.1820  -70.1660   -8.3330 O         1 <0>         0.0001
  38967 WAT       -32.1820  -70.1660   -8.0830 O         1 <0>         0.0002
  38968 WAT       -32.1820  -70.1660   -7.8330 O         1 <0>         0.0006
  38969 WAT       -32.1820  -70.1660   -7.5830 O         1 <0>         0.0013
  38970 WAT       -32.1820  -70.1660   -7.3330 O         1 <0>         0.0030
  38971 WAT       -32.1820  -70.1660   -7.0830 O         1 <0>         0.0118
  38972 WAT       -32.1820  -70.1660   -6.8330 O         1 <0>         0.0391
  38973 WAT       -32.1820  -70.1660   -6.5830 O         1 <0>         0.0835
  38974 WAT       -32.1820  -70.1660   -6.3330 O         1 <0>         0.1157
  38975 WAT       -32.1820  -70.1660   -6.0830 O         1 <0>         0.1034
  38976 WAT       -32.1820  -70.1660   -5.8330 O         1 <0>         0.0587
  38977 WAT       -32.1820  -70.1660   -5.5830 O         1 <0>         0.0201
  38978 WAT       -32.1820  -70.1660   -5.3330 O         1 <0>         0.0034
  38979 WAT       -32.1820  -70.1660   -5.0830 O         1 <0>         0.0002
  38980 WAT       -32.1820  -70.1660   -4.8330 O         1 <0>         0.0000
  38981 WAT       -32.1820  -70.1660   -4.5830 O         1 <0>         0.0000
  38982 WAT       -32.1820  -70.1660   -4.3330 O         1 <0>         0.0000
  38983 WAT       -32.1820  -70.1660   -4.0830 O         1 <0>         0.0000
  38984 WAT       -32.1820  -70.1660   -3.8330 O         1 <0>         0.0000
  38985 WAT       -32.1820  -70.1660   -3.5830 O         1 <0>         0.0000
  38986 WAT       -32.1820  -70.1660   -3.3330 O         1 <0>         0.0000
  38987 WAT       -32.1820  -70.1660   -3.0830 O         1 <0>         0.0000
  38988 WAT       -32.1820  -70.1660   -2.8330 O         1 <0>         0.0000
  38989 WAT       -32.1820  -70.1660   -2.5830 O         1 <0>         0.0000
  38990 WAT       -32.1820  -70.1660   -2.3330 O         1 <0>         0.0000
  38991 WAT       -32.1820  -70.1660   -2.0830 O         1 <0>         0.0000
  38992 WAT       -32.1820  -70.1660   -1.8330 O         1 <0>         0.0000
  38993 WAT       -32.1820  -70.1660   -1.5830 O         1 <0>         0.0000
  38994 WAT       -32.1820  -70.1660   -1.3330 O         1 <0>         0.0000
  38995 WAT       -32.1820  -70.1660   -1.0830 O         1 <0>         0.0000
  38996 WAT       -32.1820  -70.1660   -0.8330 O         1 <0>         0.0000
  38997 WAT       -32.1820  -70.1660   -0.5830 O         1 <0>         0.0000
  38998 WAT       -32.1820  -70.1660   -0.3330 O         1 <0>         0.0000
  38999 WAT       -32.1820  -70.1660   -0.0830 O         1 <0>         0.0000
  39000 WAT       -32.1820  -69.9160   -9.8330 O         1 <0>         0.0000
  39001 WAT       -32.1820  -69.9160   -9.5830 O         1 <0>         0.0000
  39002 WAT       -32.1820  -69.9160   -9.3330 O         1 <0>         0.0000
  39003 WAT       -32.1820  -69.9160   -9.0830 O         1 <0>         0.0000
  39004 WAT       -32.1820  -69.9160   -8.8330 O         1 <0>         0.0000
  39005 WAT       -32.1820  -69.9160   -8.5830 O         1 <0>         0.0000
  39006 WAT       -32.1820  -69.9160   -8.3330 O         1 <0>         0.0001
  39007 WAT       -32.1820  -69.9160   -8.0830 O         1 <0>         0.0002
  39008 WAT       -32.1820  -69.9160   -7.8330 O         1 <0>         0.0004
  39009 WAT       -32.1820  -69.9160   -7.5830 O         1 <0>         0.0008
  39010 WAT       -32.1820  -69.9160   -7.3330 O         1 <0>         0.0018
  39011 WAT       -32.1820  -69.9160   -7.0830 O         1 <0>         0.0071
  39012 WAT       -32.1820  -69.9160   -6.8330 O         1 <0>         0.0231
  39013 WAT       -32.1820  -69.9160   -6.5830 O         1 <0>         0.0475
  39014 WAT       -32.1820  -69.9160   -6.3330 O         1 <0>         0.0628
  39015 WAT       -32.1820  -69.9160   -6.0830 O         1 <0>         0.0533
  39016 WAT       -32.1820  -69.9160   -5.8330 O         1 <0>         0.0283
  39017 WAT       -32.1820  -69.9160   -5.5830 O         1 <0>         0.0086
  39018 WAT       -32.1820  -69.9160   -5.3330 O         1 <0>         0.0012
  39019 WAT       -32.1820  -69.9160   -5.0830 O         1 <0>         0.0001
  39020 WAT       -32.1820  -69.9160   -4.8330 O         1 <0>         0.0000
  39021 WAT       -32.1820  -69.9160   -4.5830 O         1 <0>         0.0000
  39022 WAT       -32.1820  -69.9160   -4.3330 O         1 <0>         0.0000
  39023 WAT       -32.1820  -69.9160   -4.0830 O         1 <0>         0.0000
  39024 WAT       -32.1820  -69.9160   -3.8330 O         1 <0>         0.0000
  39025 WAT       -32.1820  -69.9160   -3.5830 O         1 <0>         0.0000
  39026 WAT       -32.1820  -69.9160   -3.3330 O         1 <0>         0.0000
  39027 WAT       -32.1820  -69.9160   -3.0830 O         1 <0>         0.0000
  39028 WAT       -32.1820  -69.9160   -2.8330 O         1 <0>         0.0000
  39029 WAT       -32.1820  -69.9160   -2.5830 O         1 <0>         0.0000
  39030 WAT       -32.1820  -69.9160   -2.3330 O         1 <0>         0.0000
  39031 WAT       -32.1820  -69.9160   -2.0830 O         1 <0>         0.0000
  39032 WAT       -32.1820  -69.9160   -1.8330 O         1 <0>         0.0000
  39033 WAT       -32.1820  -69.9160   -1.5830 O         1 <0>         0.0000
  39034 WAT       -32.1820  -69.9160   -1.3330 O         1 <0>         0.0000
  39035 WAT       -32.1820  -69.9160   -1.0830 O         1 <0>         0.0000
  39036 WAT       -32.1820  -69.9160   -0.8330 O         1 <0>         0.0000
  39037 WAT       -32.1820  -69.9160   -0.5830 O         1 <0>         0.0000
  39038 WAT       -32.1820  -69.9160   -0.3330 O         1 <0>         0.0000
  39039 WAT       -32.1820  -69.9160   -0.0830 O         1 <0>         0.0000
  39040 WAT       -32.1820  -69.6660   -9.8330 O         1 <0>         0.0000
  39041 WAT       -32.1820  -69.6660   -9.5830 O         1 <0>         0.0000
  39042 WAT       -32.1820  -69.6660   -9.3330 O         1 <0>         0.0000
  39043 WAT       -32.1820  -69.6660   -9.0830 O         1 <0>         0.0000
  39044 WAT       -32.1820  -69.6660   -8.8330 O         1 <0>         0.0000
  39045 WAT       -32.1820  -69.6660   -8.5830 O         1 <0>         0.0001
  39046 WAT       -32.1820  -69.6660   -8.3330 O         1 <0>         0.0001
  39047 WAT       -32.1820  -69.6660   -8.0830 O         1 <0>         0.0001
  39048 WAT       -32.1820  -69.6660   -7.8330 O         1 <0>         0.0002
  39049 WAT       -32.1820  -69.6660   -7.5830 O         1 <0>         0.0003
  39050 WAT       -32.1820  -69.6660   -7.3330 O         1 <0>         0.0008
  39051 WAT       -32.1820  -69.6660   -7.0830 O         1 <0>         0.0030
  39052 WAT       -32.1820  -69.6660   -6.8330 O         1 <0>         0.0100
  39053 WAT       -32.1820  -69.6660   -6.5830 O         1 <0>         0.0204
  39054 WAT       -32.1820  -69.6660   -6.3330 O         1 <0>         0.0263
  39055 WAT       -32.1820  -69.6660   -6.0830 O         1 <0>         0.0214
  39056 WAT       -32.1820  -69.6660   -5.8330 O         1 <0>         0.0107
  39057 WAT       -32.1820  -69.6660   -5.5830 O         1 <0>         0.0030
  39058 WAT       -32.1820  -69.6660   -5.3330 O         1 <0>         0.0004
  39059 WAT       -32.1820  -69.6660   -5.0830 O         1 <0>         0.0000
  39060 WAT       -32.1820  -69.6660   -4.8330 O         1 <0>         0.0000
  39061 WAT       -32.1820  -69.6660   -4.5830 O         1 <0>         0.0000
  39062 WAT       -32.1820  -69.6660   -4.3330 O         1 <0>         0.0000
  39063 WAT       -32.1820  -69.6660   -4.0830 O         1 <0>         0.0000
  39064 WAT       -32.1820  -69.6660   -3.8330 O         1 <0>         0.0000
  39065 WAT       -32.1820  -69.6660   -3.5830 O         1 <0>         0.0000
  39066 WAT       -32.1820  -69.6660   -3.3330 O         1 <0>         0.0000
  39067 WAT       -32.1820  -69.6660   -3.0830 O         1 <0>         0.0000
  39068 WAT       -32.1820  -69.6660   -2.8330 O         1 <0>         0.0000
  39069 WAT       -32.1820  -69.6660   -2.5830 O         1 <0>         0.0000
  39070 WAT       -32.1820  -69.6660   -2.3330 O         1 <0>         0.0000
  39071 WAT       -32.1820  -69.6660   -2.0830 O         1 <0>         0.0000
  39072 WAT       -32.1820  -69.6660   -1.8330 O         1 <0>         0.0000
  39073 WAT       -32.1820  -69.6660   -1.5830 O         1 <0>         0.0000
  39074 WAT       -32.1820  -69.6660   -1.3330 O         1 <0>         0.0000
  39075 WAT       -32.1820  -69.6660   -1.0830 O         1 <0>         0.0000
  39076 WAT       -32.1820  -69.6660   -0.8330 O         1 <0>         0.0000
  39077 WAT       -32.1820  -69.6660   -0.5830 O         1 <0>         0.0000
  39078 WAT       -32.1820  -69.6660   -0.3330 O         1 <0>         0.0000
  39079 WAT       -32.1820  -69.6660   -0.0830 O         1 <0>         0.0000
  39080 WAT       -32.1820  -69.4160   -9.8330 O         1 <0>         0.0000
  39081 WAT       -32.1820  -69.4160   -9.5830 O         1 <0>         0.0000
  39082 WAT       -32.1820  -69.4160   -9.3330 O         1 <0>         0.0000
  39083 WAT       -32.1820  -69.4160   -9.0830 O         1 <0>         0.0000
  39084 WAT       -32.1820  -69.4160   -8.8330 O         1 <0>         0.0000
  39085 WAT       -32.1820  -69.4160   -8.5830 O         1 <0>         0.0000
  39086 WAT       -32.1820  -69.4160   -8.3330 O         1 <0>         0.0001
  39087 WAT       -32.1820  -69.4160   -8.0830 O         1 <0>         0.0001
  39088 WAT       -32.1820  -69.4160   -7.8330 O         1 <0>         0.0001
  39089 WAT       -32.1820  -69.4160   -7.5830 O         1 <0>         0.0001
  39090 WAT       -32.1820  -69.4160   -7.3330 O         1 <0>         0.0003
  39091 WAT       -32.1820  -69.4160   -7.0830 O         1 <0>         0.0011
  39092 WAT       -32.1820  -69.4160   -6.8330 O         1 <0>         0.0033
  39093 WAT       -32.1820  -69.4160   -6.5830 O         1 <0>         0.0068
  39094 WAT       -32.1820  -69.4160   -6.3330 O         1 <0>         0.0087
  39095 WAT       -32.1820  -69.4160   -6.0830 O         1 <0>         0.0071
  39096 WAT       -32.1820  -69.4160   -5.8330 O         1 <0>         0.0036
  39097 WAT       -32.1820  -69.4160   -5.5830 O         1 <0>         0.0011
  39098 WAT       -32.1820  -69.4160   -5.3330 O         1 <0>         0.0002
  39099 WAT       -32.1820  -69.4160   -5.0830 O         1 <0>         0.0000
  39100 WAT       -32.1820  -69.4160   -4.8330 O         1 <0>         0.0000
  39101 WAT       -32.1820  -69.4160   -4.5830 O         1 <0>         0.0000
  39102 WAT       -32.1820  -69.4160   -4.3330 O         1 <0>         0.0000
  39103 WAT       -32.1820  -69.4160   -4.0830 O         1 <0>         0.0000
  39104 WAT       -32.1820  -69.4160   -3.8330 O         1 <0>         0.0000
  39105 WAT       -32.1820  -69.4160   -3.5830 O         1 <0>         0.0000
  39106 WAT       -32.1820  -69.4160   -3.3330 O         1 <0>         0.0000
  39107 WAT       -32.1820  -69.4160   -3.0830 O         1 <0>         0.0000
  39108 WAT       -32.1820  -69.4160   -2.8330 O         1 <0>         0.0000
  39109 WAT       -32.1820  -69.4160   -2.5830 O         1 <0>         0.0000
  39110 WAT       -32.1820  -69.4160   -2.3330 O         1 <0>         0.0000
  39111 WAT       -32.1820  -69.4160   -2.0830 O         1 <0>         0.0000
  39112 WAT       -32.1820  -69.4160   -1.8330 O         1 <0>         0.0000
  39113 WAT       -32.1820  -69.4160   -1.5830 O         1 <0>         0.0000
  39114 WAT       -32.1820  -69.4160   -1.3330 O         1 <0>         0.0000
  39115 WAT       -32.1820  -69.4160   -1.0830 O         1 <0>         0.0000
  39116 WAT       -32.1820  -69.4160   -0.8330 O         1 <0>         0.0000
  39117 WAT       -32.1820  -69.4160   -0.5830 O         1 <0>         0.0000
  39118 WAT       -32.1820  -69.4160   -0.3330 O         1 <0>         0.0000
  39119 WAT       -32.1820  -69.4160   -0.0830 O         1 <0>         0.0000
  39120 WAT       -32.1820  -69.1660   -9.8330 O         1 <0>         0.0000
  39121 WAT       -32.1820  -69.1660   -9.5830 O         1 <0>         0.0000
  39122 WAT       -32.1820  -69.1660   -9.3330 O         1 <0>         0.0000
  39123 WAT       -32.1820  -69.1660   -9.0830 O         1 <0>         0.0000
  39124 WAT       -32.1820  -69.1660   -8.8330 O         1 <0>         0.0000
  39125 WAT       -32.1820  -69.1660   -8.5830 O         1 <0>         0.0000
  39126 WAT       -32.1820  -69.1660   -8.3330 O         1 <0>         0.0000
  39127 WAT       -32.1820  -69.1660   -8.0830 O         1 <0>         0.0000
  39128 WAT       -32.1820  -69.1660   -7.8330 O         1 <0>         0.0000
  39129 WAT       -32.1820  -69.1660   -7.5830 O         1 <0>         0.0001
  39130 WAT       -32.1820  -69.1660   -7.3330 O         1 <0>         0.0003
  39131 WAT       -32.1820  -69.1660   -7.0830 O         1 <0>         0.0005
  39132 WAT       -32.1820  -69.1660   -6.8330 O         1 <0>         0.0011
  39133 WAT       -32.1820  -69.1660   -6.5830 O         1 <0>         0.0022
  39134 WAT       -32.1820  -69.1660   -6.3330 O         1 <0>         0.0029
  39135 WAT       -32.1820  -69.1660   -6.0830 O         1 <0>         0.0025
  39136 WAT       -32.1820  -69.1660   -5.8330 O         1 <0>         0.0014
  39137 WAT       -32.1820  -69.1660   -5.5830 O         1 <0>         0.0005
  39138 WAT       -32.1820  -69.1660   -5.3330 O         1 <0>         0.0001
  39139 WAT       -32.1820  -69.1660   -5.0830 O         1 <0>         0.0000
  39140 WAT       -32.1820  -69.1660   -4.8330 O         1 <0>         0.0000
  39141 WAT       -32.1820  -69.1660   -4.5830 O         1 <0>         0.0000
  39142 WAT       -32.1820  -69.1660   -4.3330 O         1 <0>         0.0000
  39143 WAT       -32.1820  -69.1660   -4.0830 O         1 <0>         0.0000
  39144 WAT       -32.1820  -69.1660   -3.8330 O         1 <0>         0.0000
  39145 WAT       -32.1820  -69.1660   -3.5830 O         1 <0>         0.0000
  39146 WAT       -32.1820  -69.1660   -3.3330 O         1 <0>         0.0000
  39147 WAT       -32.1820  -69.1660   -3.0830 O         1 <0>         0.0000
  39148 WAT       -32.1820  -69.1660   -2.8330 O         1 <0>         0.0000
  39149 WAT       -32.1820  -69.1660   -2.5830 O         1 <0>         0.0000
  39150 WAT       -32.1820  -69.1660   -2.3330 O         1 <0>         0.0000
  39151 WAT       -32.1820  -69.1660   -2.0830 O         1 <0>         0.0000
  39152 WAT       -32.1820  -69.1660   -1.8330 O         1 <0>         0.0000
  39153 WAT       -32.1820  -69.1660   -1.5830 O         1 <0>         0.0000
  39154 WAT       -32.1820  -69.1660   -1.3330 O         1 <0>         0.0000
  39155 WAT       -32.1820  -69.1660   -1.0830 O         1 <0>         0.0000
  39156 WAT       -32.1820  -69.1660   -0.8330 O         1 <0>         0.0000
  39157 WAT       -32.1820  -69.1660   -0.5830 O         1 <0>         0.0000
  39158 WAT       -32.1820  -69.1660   -0.3330 O         1 <0>         0.0000
  39159 WAT       -32.1820  -69.1660   -0.0830 O         1 <0>         0.0000
  39160 WAT       -32.1820  -68.9160   -9.8330 O         1 <0>         0.0000
  39161 WAT       -32.1820  -68.9160   -9.5830 O         1 <0>         0.0000
  39162 WAT       -32.1820  -68.9160   -9.3330 O         1 <0>         0.0000
  39163 WAT       -32.1820  -68.9160   -9.0830 O         1 <0>         0.0000
  39164 WAT       -32.1820  -68.9160   -8.8330 O         1 <0>         0.0000
  39165 WAT       -32.1820  -68.9160   -8.5830 O         1 <0>         0.0000
  39166 WAT       -32.1820  -68.9160   -8.3330 O         1 <0>         0.0000
  39167 WAT       -32.1820  -68.9160   -8.0830 O         1 <0>         0.0000
  39168 WAT       -32.1820  -68.9160   -7.8330 O         1 <0>         0.0000
  39169 WAT       -32.1820  -68.9160   -7.5830 O         1 <0>         0.0001
  39170 WAT       -32.1820  -68.9160   -7.3330 O         1 <0>         0.0002
  39171 WAT       -32.1820  -68.9160   -7.0830 O         1 <0>         0.0004
  39172 WAT       -32.1820  -68.9160   -6.8330 O         1 <0>         0.0005
  39173 WAT       -32.1820  -68.9160   -6.5830 O         1 <0>         0.0008
  39174 WAT       -32.1820  -68.9160   -6.3330 O         1 <0>         0.0011
  39175 WAT       -32.1820  -68.9160   -6.0830 O         1 <0>         0.0010
  39176 WAT       -32.1820  -68.9160   -5.8330 O         1 <0>         0.0007
  39177 WAT       -32.1820  -68.9160   -5.5830 O         1 <0>         0.0003
  39178 WAT       -32.1820  -68.9160   -5.3330 O         1 <0>         0.0001
  39179 WAT       -32.1820  -68.9160   -5.0830 O         1 <0>         0.0000
  39180 WAT       -32.1820  -68.9160   -4.8330 O         1 <0>         0.0000
  39181 WAT       -32.1820  -68.9160   -4.5830 O         1 <0>         0.0000
  39182 WAT       -32.1820  -68.9160   -4.3330 O         1 <0>         0.0000
  39183 WAT       -32.1820  -68.9160   -4.0830 O         1 <0>         0.0000
  39184 WAT       -32.1820  -68.9160   -3.8330 O         1 <0>         0.0000
  39185 WAT       -32.1820  -68.9160   -3.5830 O         1 <0>         0.0000
  39186 WAT       -32.1820  -68.9160   -3.3330 O         1 <0>         0.0000
  39187 WAT       -32.1820  -68.9160   -3.0830 O         1 <0>         0.0000
  39188 WAT       -32.1820  -68.9160   -2.8330 O         1 <0>         0.0000
  39189 WAT       -32.1820  -68.9160   -2.5830 O         1 <0>         0.0000
  39190 WAT       -32.1820  -68.9160   -2.3330 O         1 <0>         0.0000
  39191 WAT       -32.1820  -68.9160   -2.0830 O         1 <0>         0.0000
  39192 WAT       -32.1820  -68.9160   -1.8330 O         1 <0>         0.0000
  39193 WAT       -32.1820  -68.9160   -1.5830 O         1 <0>         0.0000
  39194 WAT       -32.1820  -68.9160   -1.3330 O         1 <0>         0.0000
  39195 WAT       -32.1820  -68.9160   -1.0830 O         1 <0>         0.0000
  39196 WAT       -32.1820  -68.9160   -0.8330 O         1 <0>         0.0000
  39197 WAT       -32.1820  -68.9160   -0.5830 O         1 <0>         0.0000
  39198 WAT       -32.1820  -68.9160   -0.3330 O         1 <0>         0.0000
  39199 WAT       -32.1820  -68.9160   -0.0830 O         1 <0>         0.0000
  39200 WAT       -31.9320  -77.4160   -9.8330 O         1 <0>         0.0000
  39201 WAT       -31.9320  -77.4160   -9.5830 O         1 <0>         0.0000
  39202 WAT       -31.9320  -77.4160   -9.3330 O         1 <0>         0.0000
  39203 WAT       -31.9320  -77.4160   -9.0830 O         1 <0>         0.0000
  39204 WAT       -31.9320  -77.4160   -8.8330 O         1 <0>         0.0000
  39205 WAT       -31.9320  -77.4160   -8.5830 O         1 <0>         0.0000
  39206 WAT       -31.9320  -77.4160   -8.3330 O         1 <0>         0.0000
  39207 WAT       -31.9320  -77.4160   -8.0830 O         1 <0>         0.0000
  39208 WAT       -31.9320  -77.4160   -7.8330 O         1 <0>         0.0000
  39209 WAT       -31.9320  -77.4160   -7.5830 O         1 <0>         0.0000
  39210 WAT       -31.9320  -77.4160   -7.3330 O         1 <0>         0.0000
  39211 WAT       -31.9320  -77.4160   -7.0830 O         1 <0>         0.0000
  39212 WAT       -31.9320  -77.4160   -6.8330 O         1 <0>         0.0000
  39213 WAT       -31.9320  -77.4160   -6.5830 O         1 <0>         0.0000
  39214 WAT       -31.9320  -77.4160   -6.3330 O         1 <0>         0.0000
  39215 WAT       -31.9320  -77.4160   -6.0830 O         1 <0>         0.0000
  39216 WAT       -31.9320  -77.4160   -5.8330 O         1 <0>         0.0000
  39217 WAT       -31.9320  -77.4160   -5.5830 O         1 <0>         0.0000
  39218 WAT       -31.9320  -77.4160   -5.3330 O         1 <0>         0.0000
  39219 WAT       -31.9320  -77.4160   -5.0830 O         1 <0>         0.0000
  39220 WAT       -31.9320  -77.4160   -4.8330 O         1 <0>         0.0000
  39221 WAT       -31.9320  -77.4160   -4.5830 O         1 <0>         0.0000
  39222 WAT       -31.9320  -77.4160   -4.3330 O         1 <0>         0.0000
  39223 WAT       -31.9320  -77.4160   -4.0830 O         1 <0>         0.0000
  39224 WAT       -31.9320  -77.4160   -3.8330 O         1 <0>         0.0000
  39225 WAT       -31.9320  -77.4160   -3.5830 O         1 <0>         0.0000
  39226 WAT       -31.9320  -77.4160   -3.3330 O         1 <0>         0.0000
  39227 WAT       -31.9320  -77.4160   -3.0830 O         1 <0>         0.0000
  39228 WAT       -31.9320  -77.4160   -2.8330 O         1 <0>         0.0000
  39229 WAT       -31.9320  -77.4160   -2.5830 O         1 <0>         0.0000
  39230 WAT       -31.9320  -77.4160   -2.3330 O         1 <0>         0.0000
  39231 WAT       -31.9320  -77.4160   -2.0830 O         1 <0>         0.0000
  39232 WAT       -31.9320  -77.4160   -1.8330 O         1 <0>         0.0000
  39233 WAT       -31.9320  -77.4160   -1.5830 O         1 <0>         0.0000
  39234 WAT       -31.9320  -77.4160   -1.3330 O         1 <0>         0.0000
  39235 WAT       -31.9320  -77.4160   -1.0830 O         1 <0>         0.0000
  39236 WAT       -31.9320  -77.4160   -0.8330 O         1 <0>         0.0000
  39237 WAT       -31.9320  -77.4160   -0.5830 O         1 <0>         0.0000
  39238 WAT       -31.9320  -77.4160   -0.3330 O         1 <0>         0.0000
  39239 WAT       -31.9320  -77.4160   -0.0830 O         1 <0>         0.0000
  39240 WAT       -31.9320  -77.1660   -9.8330 O         1 <0>         0.0000
  39241 WAT       -31.9320  -77.1660   -9.5830 O         1 <0>         0.0000
  39242 WAT       -31.9320  -77.1660   -9.3330 O         1 <0>         0.0000
  39243 WAT       -31.9320  -77.1660   -9.0830 O         1 <0>         0.0000
  39244 WAT       -31.9320  -77.1660   -8.8330 O         1 <0>         0.0000
  39245 WAT       -31.9320  -77.1660   -8.5830 O         1 <0>         0.0000
  39246 WAT       -31.9320  -77.1660   -8.3330 O         1 <0>         0.0000
  39247 WAT       -31.9320  -77.1660   -8.0830 O         1 <0>         0.0000
  39248 WAT       -31.9320  -77.1660   -7.8330 O         1 <0>         0.0000
  39249 WAT       -31.9320  -77.1660   -7.5830 O         1 <0>         0.0000
  39250 WAT       -31.9320  -77.1660   -7.3330 O         1 <0>         0.0000
  39251 WAT       -31.9320  -77.1660   -7.0830 O         1 <0>         0.0000
  39252 WAT       -31.9320  -77.1660   -6.8330 O         1 <0>         0.0000
  39253 WAT       -31.9320  -77.1660   -6.5830 O         1 <0>         0.0000
  39254 WAT       -31.9320  -77.1660   -6.3330 O         1 <0>         0.0000
  39255 WAT       -31.9320  -77.1660   -6.0830 O         1 <0>         0.0000
  39256 WAT       -31.9320  -77.1660   -5.8330 O         1 <0>         0.0000
  39257 WAT       -31.9320  -77.1660   -5.5830 O         1 <0>         0.0000
  39258 WAT       -31.9320  -77.1660   -5.3330 O         1 <0>         0.0000
  39259 WAT       -31.9320  -77.1660   -5.0830 O         1 <0>         0.0000
  39260 WAT       -31.9320  -77.1660   -4.8330 O         1 <0>         0.0000
  39261 WAT       -31.9320  -77.1660   -4.5830 O         1 <0>         0.0000
  39262 WAT       -31.9320  -77.1660   -4.3330 O         1 <0>         0.0000
  39263 WAT       -31.9320  -77.1660   -4.0830 O         1 <0>         0.0000
  39264 WAT       -31.9320  -77.1660   -3.8330 O         1 <0>         0.0000
  39265 WAT       -31.9320  -77.1660   -3.5830 O         1 <0>         0.0000
  39266 WAT       -31.9320  -77.1660   -3.3330 O         1 <0>         0.0000
  39267 WAT       -31.9320  -77.1660   -3.0830 O         1 <0>         0.0000
  39268 WAT       -31.9320  -77.1660   -2.8330 O         1 <0>         0.0000
  39269 WAT       -31.9320  -77.1660   -2.5830 O         1 <0>         0.0000
  39270 WAT       -31.9320  -77.1660   -2.3330 O         1 <0>         0.0000
  39271 WAT       -31.9320  -77.1660   -2.0830 O         1 <0>         0.0000
  39272 WAT       -31.9320  -77.1660   -1.8330 O         1 <0>         0.0000
  39273 WAT       -31.9320  -77.1660   -1.5830 O         1 <0>         0.0000
  39274 WAT       -31.9320  -77.1660   -1.3330 O         1 <0>         0.0000
  39275 WAT       -31.9320  -77.1660   -1.0830 O         1 <0>         0.0000
  39276 WAT       -31.9320  -77.1660   -0.8330 O         1 <0>         0.0000
  39277 WAT       -31.9320  -77.1660   -0.5830 O         1 <0>         0.0000
  39278 WAT       -31.9320  -77.1660   -0.3330 O         1 <0>         0.0000
  39279 WAT       -31.9320  -77.1660   -0.0830 O         1 <0>         0.0000
  39280 WAT       -31.9320  -76.9160   -9.8330 O         1 <0>         0.0000
  39281 WAT       -31.9320  -76.9160   -9.5830 O         1 <0>         0.0000
  39282 WAT       -31.9320  -76.9160   -9.3330 O         1 <0>         0.0000
  39283 WAT       -31.9320  -76.9160   -9.0830 O         1 <0>         0.0000
  39284 WAT       -31.9320  -76.9160   -8.8330 O         1 <0>         0.0000
  39285 WAT       -31.9320  -76.9160   -8.5830 O         1 <0>         0.0000
  39286 WAT       -31.9320  -76.9160   -8.3330 O         1 <0>         0.0000
  39287 WAT       -31.9320  -76.9160   -8.0830 O         1 <0>         0.0000
  39288 WAT       -31.9320  -76.9160   -7.8330 O         1 <0>         0.0000
  39289 WAT       -31.9320  -76.9160   -7.5830 O         1 <0>         0.0000
  39290 WAT       -31.9320  -76.9160   -7.3330 O         1 <0>         0.0000
  39291 WAT       -31.9320  -76.9160   -7.0830 O         1 <0>         0.0000
  39292 WAT       -31.9320  -76.9160   -6.8330 O         1 <0>         0.0000
  39293 WAT       -31.9320  -76.9160   -6.5830 O         1 <0>         0.0000
  39294 WAT       -31.9320  -76.9160   -6.3330 O         1 <0>         0.0000
  39295 WAT       -31.9320  -76.9160   -6.0830 O         1 <0>         0.0000
  39296 WAT       -31.9320  -76.9160   -5.8330 O         1 <0>         0.0000
  39297 WAT       -31.9320  -76.9160   -5.5830 O         1 <0>         0.0000
  39298 WAT       -31.9320  -76.9160   -5.3330 O         1 <0>         0.0000
  39299 WAT       -31.9320  -76.9160   -5.0830 O         1 <0>         0.0000
  39300 WAT       -31.9320  -76.9160   -4.8330 O         1 <0>         0.0000
  39301 WAT       -31.9320  -76.9160   -4.5830 O         1 <0>         0.0000
  39302 WAT       -31.9320  -76.9160   -4.3330 O         1 <0>         0.0000
  39303 WAT       -31.9320  -76.9160   -4.0830 O         1 <0>         0.0000
  39304 WAT       -31.9320  -76.9160   -3.8330 O         1 <0>         0.0000
  39305 WAT       -31.9320  -76.9160   -3.5830 O         1 <0>         0.0000
  39306 WAT       -31.9320  -76.9160   -3.3330 O         1 <0>         0.0000
  39307 WAT       -31.9320  -76.9160   -3.0830 O         1 <0>         0.0000
  39308 WAT       -31.9320  -76.9160   -2.8330 O         1 <0>         0.0000
  39309 WAT       -31.9320  -76.9160   -2.5830 O         1 <0>         0.0000
  39310 WAT       -31.9320  -76.9160   -2.3330 O         1 <0>         0.0000
  39311 WAT       -31.9320  -76.9160   -2.0830 O         1 <0>         0.0000
  39312 WAT       -31.9320  -76.9160   -1.8330 O         1 <0>         0.0000
  39313 WAT       -31.9320  -76.9160   -1.5830 O         1 <0>         0.0000
  39314 WAT       -31.9320  -76.9160   -1.3330 O         1 <0>         0.0000
  39315 WAT       -31.9320  -76.9160   -1.0830 O         1 <0>         0.0000
  39316 WAT       -31.9320  -76.9160   -0.8330 O         1 <0>         0.0000
  39317 WAT       -31.9320  -76.9160   -0.5830 O         1 <0>         0.0000
  39318 WAT       -31.9320  -76.9160   -0.3330 O         1 <0>         0.0000
  39319 WAT       -31.9320  -76.9160   -0.0830 O         1 <0>         0.0000
  39320 WAT       -31.9320  -76.6660   -9.8330 O         1 <0>         0.0000
  39321 WAT       -31.9320  -76.6660   -9.5830 O         1 <0>         0.0000
  39322 WAT       -31.9320  -76.6660   -9.3330 O         1 <0>         0.0000
  39323 WAT       -31.9320  -76.6660   -9.0830 O         1 <0>         0.0000
  39324 WAT       -31.9320  -76.6660   -8.8330 O         1 <0>         0.0000
  39325 WAT       -31.9320  -76.6660   -8.5830 O         1 <0>         0.0000
  39326 WAT       -31.9320  -76.6660   -8.3330 O         1 <0>         0.0000
  39327 WAT       -31.9320  -76.6660   -8.0830 O         1 <0>         0.0000
  39328 WAT       -31.9320  -76.6660   -7.8330 O         1 <0>         0.0000
  39329 WAT       -31.9320  -76.6660   -7.5830 O         1 <0>         0.0000
  39330 WAT       -31.9320  -76.6660   -7.3330 O         1 <0>         0.0000
  39331 WAT       -31.9320  -76.6660   -7.0830 O         1 <0>         0.0000
  39332 WAT       -31.9320  -76.6660   -6.8330 O         1 <0>         0.0000
  39333 WAT       -31.9320  -76.6660   -6.5830 O         1 <0>         0.0000
  39334 WAT       -31.9320  -76.6660   -6.3330 O         1 <0>         0.0000
  39335 WAT       -31.9320  -76.6660   -6.0830 O         1 <0>         0.0000
  39336 WAT       -31.9320  -76.6660   -5.8330 O         1 <0>         0.0000
  39337 WAT       -31.9320  -76.6660   -5.5830 O         1 <0>         0.0000
  39338 WAT       -31.9320  -76.6660   -5.3330 O         1 <0>         0.0000
  39339 WAT       -31.9320  -76.6660   -5.0830 O         1 <0>         0.0000
  39340 WAT       -31.9320  -76.6660   -4.8330 O         1 <0>         0.0000
  39341 WAT       -31.9320  -76.6660   -4.5830 O         1 <0>         0.0000
  39342 WAT       -31.9320  -76.6660   -4.3330 O         1 <0>         0.0000
  39343 WAT       -31.9320  -76.6660   -4.0830 O         1 <0>         0.0000
  39344 WAT       -31.9320  -76.6660   -3.8330 O         1 <0>         0.0000
  39345 WAT       -31.9320  -76.6660   -3.5830 O         1 <0>         0.0000
  39346 WAT       -31.9320  -76.6660   -3.3330 O         1 <0>         0.0000
  39347 WAT       -31.9320  -76.6660   -3.0830 O         1 <0>         0.0000
  39348 WAT       -31.9320  -76.6660   -2.8330 O         1 <0>         0.0000
  39349 WAT       -31.9320  -76.6660   -2.5830 O         1 <0>         0.0000
  39350 WAT       -31.9320  -76.6660   -2.3330 O         1 <0>         0.0000
  39351 WAT       -31.9320  -76.6660   -2.0830 O         1 <0>         0.0000
  39352 WAT       -31.9320  -76.6660   -1.8330 O         1 <0>         0.0000
  39353 WAT       -31.9320  -76.6660   -1.5830 O         1 <0>         0.0000
  39354 WAT       -31.9320  -76.6660   -1.3330 O         1 <0>         0.0000
  39355 WAT       -31.9320  -76.6660   -1.0830 O         1 <0>         0.0000
  39356 WAT       -31.9320  -76.6660   -0.8330 O         1 <0>         0.0000
  39357 WAT       -31.9320  -76.6660   -0.5830 O         1 <0>         0.0000
  39358 WAT       -31.9320  -76.6660   -0.3330 O         1 <0>         0.0000
  39359 WAT       -31.9320  -76.6660   -0.0830 O         1 <0>         0.0000
  39360 WAT       -31.9320  -76.4160   -9.8330 O         1 <0>         0.0000
  39361 WAT       -31.9320  -76.4160   -9.5830 O         1 <0>         0.0000
  39362 WAT       -31.9320  -76.4160   -9.3330 O         1 <0>         0.0000
  39363 WAT       -31.9320  -76.4160   -9.0830 O         1 <0>         0.0000
  39364 WAT       -31.9320  -76.4160   -8.8330 O         1 <0>         0.0000
  39365 WAT       -31.9320  -76.4160   -8.5830 O         1 <0>         0.0000
  39366 WAT       -31.9320  -76.4160   -8.3330 O         1 <0>         0.0000
  39367 WAT       -31.9320  -76.4160   -8.0830 O         1 <0>         0.0000
  39368 WAT       -31.9320  -76.4160   -7.8330 O         1 <0>         0.0000
  39369 WAT       -31.9320  -76.4160   -7.5830 O         1 <0>         0.0000
  39370 WAT       -31.9320  -76.4160   -7.3330 O         1 <0>         0.0000
  39371 WAT       -31.9320  -76.4160   -7.0830 O         1 <0>         0.0000
  39372 WAT       -31.9320  -76.4160   -6.8330 O         1 <0>         0.0000
  39373 WAT       -31.9320  -76.4160   -6.5830 O         1 <0>         0.0000
  39374 WAT       -31.9320  -76.4160   -6.3330 O         1 <0>         0.0000
  39375 WAT       -31.9320  -76.4160   -6.0830 O         1 <0>         0.0000
  39376 WAT       -31.9320  -76.4160   -5.8330 O         1 <0>         0.0000
  39377 WAT       -31.9320  -76.4160   -5.5830 O         1 <0>         0.0000
  39378 WAT       -31.9320  -76.4160   -5.3330 O         1 <0>         0.0000
  39379 WAT       -31.9320  -76.4160   -5.0830 O         1 <0>         0.0000
  39380 WAT       -31.9320  -76.4160   -4.8330 O         1 <0>         0.0000
  39381 WAT       -31.9320  -76.4160   -4.5830 O         1 <0>         0.0000
  39382 WAT       -31.9320  -76.4160   -4.3330 O         1 <0>         0.0000
  39383 WAT       -31.9320  -76.4160   -4.0830 O         1 <0>         0.0000
  39384 WAT       -31.9320  -76.4160   -3.8330 O         1 <0>         0.0000
  39385 WAT       -31.9320  -76.4160   -3.5830 O         1 <0>         0.0000
  39386 WAT       -31.9320  -76.4160   -3.3330 O         1 <0>         0.0000
  39387 WAT       -31.9320  -76.4160   -3.0830 O         1 <0>         0.0000
  39388 WAT       -31.9320  -76.4160   -2.8330 O         1 <0>         0.0000
  39389 WAT       -31.9320  -76.4160   -2.5830 O         1 <0>         0.0000
  39390 WAT       -31.9320  -76.4160   -2.3330 O         1 <0>         0.0000
  39391 WAT       -31.9320  -76.4160   -2.0830 O         1 <0>         0.0000
  39392 WAT       -31.9320  -76.4160   -1.8330 O         1 <0>         0.0000
  39393 WAT       -31.9320  -76.4160   -1.5830 O         1 <0>         0.0000
  39394 WAT       -31.9320  -76.4160   -1.3330 O         1 <0>         0.0000
  39395 WAT       -31.9320  -76.4160   -1.0830 O         1 <0>         0.0000
  39396 WAT       -31.9320  -76.4160   -0.8330 O         1 <0>         0.0000
  39397 WAT       -31.9320  -76.4160   -0.5830 O         1 <0>         0.0000
  39398 WAT       -31.9320  -76.4160   -0.3330 O         1 <0>         0.0000
  39399 WAT       -31.9320  -76.4160   -0.0830 O         1 <0>         0.0000
  39400 WAT       -31.9320  -76.1660   -9.8330 O         1 <0>         0.0000
  39401 WAT       -31.9320  -76.1660   -9.5830 O         1 <0>         0.0000
  39402 WAT       -31.9320  -76.1660   -9.3330 O         1 <0>         0.0000
  39403 WAT       -31.9320  -76.1660   -9.0830 O         1 <0>         0.0000
  39404 WAT       -31.9320  -76.1660   -8.8330 O         1 <0>         0.0000
  39405 WAT       -31.9320  -76.1660   -8.5830 O         1 <0>         0.0000
  39406 WAT       -31.9320  -76.1660   -8.3330 O         1 <0>         0.0000
  39407 WAT       -31.9320  -76.1660   -8.0830 O         1 <0>         0.0000
  39408 WAT       -31.9320  -76.1660   -7.8330 O         1 <0>         0.0000
  39409 WAT       -31.9320  -76.1660   -7.5830 O         1 <0>         0.0000
  39410 WAT       -31.9320  -76.1660   -7.3330 O         1 <0>         0.0000
  39411 WAT       -31.9320  -76.1660   -7.0830 O         1 <0>         0.0000
  39412 WAT       -31.9320  -76.1660   -6.8330 O         1 <0>         0.0000
  39413 WAT       -31.9320  -76.1660   -6.5830 O         1 <0>         0.0000
  39414 WAT       -31.9320  -76.1660   -6.3330 O         1 <0>         0.0000
  39415 WAT       -31.9320  -76.1660   -6.0830 O         1 <0>         0.0000
  39416 WAT       -31.9320  -76.1660   -5.8330 O         1 <0>         0.0000
  39417 WAT       -31.9320  -76.1660   -5.5830 O         1 <0>         0.0000
  39418 WAT       -31.9320  -76.1660   -5.3330 O         1 <0>         0.0000
  39419 WAT       -31.9320  -76.1660   -5.0830 O         1 <0>         0.0000
  39420 WAT       -31.9320  -76.1660   -4.8330 O         1 <0>         0.0000
  39421 WAT       -31.9320  -76.1660   -4.5830 O         1 <0>         0.0000
  39422 WAT       -31.9320  -76.1660   -4.3330 O         1 <0>         0.0000
  39423 WAT       -31.9320  -76.1660   -4.0830 O         1 <0>         0.0000
  39424 WAT       -31.9320  -76.1660   -3.8330 O         1 <0>         0.0000
  39425 WAT       -31.9320  -76.1660   -3.5830 O         1 <0>         0.0000
  39426 WAT       -31.9320  -76.1660   -3.3330 O         1 <0>         0.0000
  39427 WAT       -31.9320  -76.1660   -3.0830 O         1 <0>         0.0000
  39428 WAT       -31.9320  -76.1660   -2.8330 O         1 <0>         0.0000
  39429 WAT       -31.9320  -76.1660   -2.5830 O         1 <0>         0.0000
  39430 WAT       -31.9320  -76.1660   -2.3330 O         1 <0>         0.0000
  39431 WAT       -31.9320  -76.1660   -2.0830 O         1 <0>         0.0000
  39432 WAT       -31.9320  -76.1660   -1.8330 O         1 <0>         0.0000
  39433 WAT       -31.9320  -76.1660   -1.5830 O         1 <0>         0.0000
  39434 WAT       -31.9320  -76.1660   -1.3330 O         1 <0>         0.0000
  39435 WAT       -31.9320  -76.1660   -1.0830 O         1 <0>         0.0000
  39436 WAT       -31.9320  -76.1660   -0.8330 O         1 <0>         0.0000
  39437 WAT       -31.9320  -76.1660   -0.5830 O         1 <0>         0.0000
  39438 WAT       -31.9320  -76.1660   -0.3330 O         1 <0>         0.0000
  39439 WAT       -31.9320  -76.1660   -0.0830 O         1 <0>         0.0000
  39440 WAT       -31.9320  -75.9160   -9.8330 O         1 <0>         0.0000
  39441 WAT       -31.9320  -75.9160   -9.5830 O         1 <0>         0.0000
  39442 WAT       -31.9320  -75.9160   -9.3330 O         1 <0>         0.0000
  39443 WAT       -31.9320  -75.9160   -9.0830 O         1 <0>         0.0000
  39444 WAT       -31.9320  -75.9160   -8.8330 O         1 <0>         0.0000
  39445 WAT       -31.9320  -75.9160   -8.5830 O         1 <0>         0.0000
  39446 WAT       -31.9320  -75.9160   -8.3330 O         1 <0>         0.0000
  39447 WAT       -31.9320  -75.9160   -8.0830 O         1 <0>         0.0000
  39448 WAT       -31.9320  -75.9160   -7.8330 O         1 <0>         0.0000
  39449 WAT       -31.9320  -75.9160   -7.5830 O         1 <0>         0.0000
  39450 WAT       -31.9320  -75.9160   -7.3330 O         1 <0>         0.0000
  39451 WAT       -31.9320  -75.9160   -7.0830 O         1 <0>         0.0000
  39452 WAT       -31.9320  -75.9160   -6.8330 O         1 <0>         0.0000
  39453 WAT       -31.9320  -75.9160   -6.5830 O         1 <0>         0.0000
  39454 WAT       -31.9320  -75.9160   -6.3330 O         1 <0>         0.0000
  39455 WAT       -31.9320  -75.9160   -6.0830 O         1 <0>         0.0000
  39456 WAT       -31.9320  -75.9160   -5.8330 O         1 <0>         0.0001
  39457 WAT       -31.9320  -75.9160   -5.5830 O         1 <0>         0.0001
  39458 WAT       -31.9320  -75.9160   -5.3330 O         1 <0>         0.0001
  39459 WAT       -31.9320  -75.9160   -5.0830 O         1 <0>         0.0000
  39460 WAT       -31.9320  -75.9160   -4.8330 O         1 <0>         0.0000
  39461 WAT       -31.9320  -75.9160   -4.5830 O         1 <0>         0.0000
  39462 WAT       -31.9320  -75.9160   -4.3330 O         1 <0>         0.0000
  39463 WAT       -31.9320  -75.9160   -4.0830 O         1 <0>         0.0000
  39464 WAT       -31.9320  -75.9160   -3.8330 O         1 <0>         0.0000
  39465 WAT       -31.9320  -75.9160   -3.5830 O         1 <0>         0.0000
  39466 WAT       -31.9320  -75.9160   -3.3330 O         1 <0>         0.0000
  39467 WAT       -31.9320  -75.9160   -3.0830 O         1 <0>         0.0000
  39468 WAT       -31.9320  -75.9160   -2.8330 O         1 <0>         0.0000
  39469 WAT       -31.9320  -75.9160   -2.5830 O         1 <0>         0.0000
  39470 WAT       -31.9320  -75.9160   -2.3330 O         1 <0>         0.0000
  39471 WAT       -31.9320  -75.9160   -2.0830 O         1 <0>         0.0000
  39472 WAT       -31.9320  -75.9160   -1.8330 O         1 <0>         0.0000
  39473 WAT       -31.9320  -75.9160   -1.5830 O         1 <0>         0.0000
  39474 WAT       -31.9320  -75.9160   -1.3330 O         1 <0>         0.0000
  39475 WAT       -31.9320  -75.9160   -1.0830 O         1 <0>         0.0000
  39476 WAT       -31.9320  -75.9160   -0.8330 O         1 <0>         0.0000
  39477 WAT       -31.9320  -75.9160   -0.5830 O         1 <0>         0.0000
  39478 WAT       -31.9320  -75.9160   -0.3330 O         1 <0>         0.0000
  39479 WAT       -31.9320  -75.9160   -0.0830 O         1 <0>         0.0000
  39480 WAT       -31.9320  -75.6660   -9.8330 O         1 <0>         0.0000
  39481 WAT       -31.9320  -75.6660   -9.5830 O         1 <0>         0.0000
  39482 WAT       -31.9320  -75.6660   -9.3330 O         1 <0>         0.0000
  39483 WAT       -31.9320  -75.6660   -9.0830 O         1 <0>         0.0000
  39484 WAT       -31.9320  -75.6660   -8.8330 O         1 <0>         0.0000
  39485 WAT       -31.9320  -75.6660   -8.5830 O         1 <0>         0.0000
  39486 WAT       -31.9320  -75.6660   -8.3330 O         1 <0>         0.0000
  39487 WAT       -31.9320  -75.6660   -8.0830 O         1 <0>         0.0000
  39488 WAT       -31.9320  -75.6660   -7.8330 O         1 <0>         0.0000
  39489 WAT       -31.9320  -75.6660   -7.5830 O         1 <0>         0.0000
  39490 WAT       -31.9320  -75.6660   -7.3330 O         1 <0>         0.0000
  39491 WAT       -31.9320  -75.6660   -7.0830 O         1 <0>         0.0000
  39492 WAT       -31.9320  -75.6660   -6.8330 O         1 <0>         0.0000
  39493 WAT       -31.9320  -75.6660   -6.5830 O         1 <0>         0.0000
  39494 WAT       -31.9320  -75.6660   -6.3330 O         1 <0>         0.0001
  39495 WAT       -31.9320  -75.6660   -6.0830 O         1 <0>         0.0003
  39496 WAT       -31.9320  -75.6660   -5.8330 O         1 <0>         0.0006
  39497 WAT       -31.9320  -75.6660   -5.5830 O         1 <0>         0.0009
  39498 WAT       -31.9320  -75.6660   -5.3330 O         1 <0>         0.0007
  39499 WAT       -31.9320  -75.6660   -5.0830 O         1 <0>         0.0004
  39500 WAT       -31.9320  -75.6660   -4.8330 O         1 <0>         0.0001
  39501 WAT       -31.9320  -75.6660   -4.5830 O         1 <0>         0.0000
  39502 WAT       -31.9320  -75.6660   -4.3330 O         1 <0>         0.0000
  39503 WAT       -31.9320  -75.6660   -4.0830 O         1 <0>         0.0000
  39504 WAT       -31.9320  -75.6660   -3.8330 O         1 <0>         0.0000
  39505 WAT       -31.9320  -75.6660   -3.5830 O         1 <0>         0.0000
  39506 WAT       -31.9320  -75.6660   -3.3330 O         1 <0>         0.0000
  39507 WAT       -31.9320  -75.6660   -3.0830 O         1 <0>         0.0000
  39508 WAT       -31.9320  -75.6660   -2.8330 O         1 <0>         0.0000
  39509 WAT       -31.9320  -75.6660   -2.5830 O         1 <0>         0.0000
  39510 WAT       -31.9320  -75.6660   -2.3330 O         1 <0>         0.0000
  39511 WAT       -31.9320  -75.6660   -2.0830 O         1 <0>         0.0000
  39512 WAT       -31.9320  -75.6660   -1.8330 O         1 <0>         0.0000
  39513 WAT       -31.9320  -75.6660   -1.5830 O         1 <0>         0.0000
  39514 WAT       -31.9320  -75.6660   -1.3330 O         1 <0>         0.0000
  39515 WAT       -31.9320  -75.6660   -1.0830 O         1 <0>         0.0000
  39516 WAT       -31.9320  -75.6660   -0.8330 O         1 <0>         0.0000
  39517 WAT       -31.9320  -75.6660   -0.5830 O         1 <0>         0.0000
  39518 WAT       -31.9320  -75.6660   -0.3330 O         1 <0>         0.0000
  39519 WAT       -31.9320  -75.6660   -0.0830 O         1 <0>         0.0000
  39520 WAT       -31.9320  -75.4160   -9.8330 O         1 <0>         0.0000
  39521 WAT       -31.9320  -75.4160   -9.5830 O         1 <0>         0.0000
  39522 WAT       -31.9320  -75.4160   -9.3330 O         1 <0>         0.0000
  39523 WAT       -31.9320  -75.4160   -9.0830 O         1 <0>         0.0000
  39524 WAT       -31.9320  -75.4160   -8.8330 O         1 <0>         0.0000
  39525 WAT       -31.9320  -75.4160   -8.5830 O         1 <0>         0.0000
  39526 WAT       -31.9320  -75.4160   -8.3330 O         1 <0>         0.0000
  39527 WAT       -31.9320  -75.4160   -8.0830 O         1 <0>         0.0000
  39528 WAT       -31.9320  -75.4160   -7.8330 O         1 <0>         0.0000
  39529 WAT       -31.9320  -75.4160   -7.5830 O         1 <0>         0.0000
  39530 WAT       -31.9320  -75.4160   -7.3330 O         1 <0>         0.0000
  39531 WAT       -31.9320  -75.4160   -7.0830 O         1 <0>         0.0000
  39532 WAT       -31.9320  -75.4160   -6.8330 O         1 <0>         0.0000
  39533 WAT       -31.9320  -75.4160   -6.5830 O         1 <0>         0.0000
  39534 WAT       -31.9320  -75.4160   -6.3330 O         1 <0>         0.0003
  39535 WAT       -31.9320  -75.4160   -6.0830 O         1 <0>         0.0012
  39536 WAT       -31.9320  -75.4160   -5.8330 O         1 <0>         0.0025
  39537 WAT       -31.9320  -75.4160   -5.5830 O         1 <0>         0.0035
  39538 WAT       -31.9320  -75.4160   -5.3330 O         1 <0>         0.0032
  39539 WAT       -31.9320  -75.4160   -5.0830 O         1 <0>         0.0019
  39540 WAT       -31.9320  -75.4160   -4.8330 O         1 <0>         0.0007
  39541 WAT       -31.9320  -75.4160   -4.5830 O         1 <0>         0.0001
  39542 WAT       -31.9320  -75.4160   -4.3330 O         1 <0>         0.0000
  39543 WAT       -31.9320  -75.4160   -4.0830 O         1 <0>         0.0000
  39544 WAT       -31.9320  -75.4160   -3.8330 O         1 <0>         0.0000
  39545 WAT       -31.9320  -75.4160   -3.5830 O         1 <0>         0.0000
  39546 WAT       -31.9320  -75.4160   -3.3330 O         1 <0>         0.0000
  39547 WAT       -31.9320  -75.4160   -3.0830 O         1 <0>         0.0000
  39548 WAT       -31.9320  -75.4160   -2.8330 O         1 <0>         0.0000
  39549 WAT       -31.9320  -75.4160   -2.5830 O         1 <0>         0.0000
  39550 WAT       -31.9320  -75.4160   -2.3330 O         1 <0>         0.0000
  39551 WAT       -31.9320  -75.4160   -2.0830 O         1 <0>         0.0000
  39552 WAT       -31.9320  -75.4160   -1.8330 O         1 <0>         0.0000
  39553 WAT       -31.9320  -75.4160   -1.5830 O         1 <0>         0.0000
  39554 WAT       -31.9320  -75.4160   -1.3330 O         1 <0>         0.0000
  39555 WAT       -31.9320  -75.4160   -1.0830 O         1 <0>         0.0000
  39556 WAT       -31.9320  -75.4160   -0.8330 O         1 <0>         0.0000
  39557 WAT       -31.9320  -75.4160   -0.5830 O         1 <0>         0.0000
  39558 WAT       -31.9320  -75.4160   -0.3330 O         1 <0>         0.0000
  39559 WAT       -31.9320  -75.4160   -0.0830 O         1 <0>         0.0000
  39560 WAT       -31.9320  -75.1660   -9.8330 O         1 <0>         0.0000
  39561 WAT       -31.9320  -75.1660   -9.5830 O         1 <0>         0.0000
  39562 WAT       -31.9320  -75.1660   -9.3330 O         1 <0>         0.0000
  39563 WAT       -31.9320  -75.1660   -9.0830 O         1 <0>         0.0000
  39564 WAT       -31.9320  -75.1660   -8.8330 O         1 <0>         0.0000
  39565 WAT       -31.9320  -75.1660   -8.5830 O         1 <0>         0.0000
  39566 WAT       -31.9320  -75.1660   -8.3330 O         1 <0>         0.0000
  39567 WAT       -31.9320  -75.1660   -8.0830 O         1 <0>         0.0000
  39568 WAT       -31.9320  -75.1660   -7.8330 O         1 <0>         0.0000
  39569 WAT       -31.9320  -75.1660   -7.5830 O         1 <0>         0.0000
  39570 WAT       -31.9320  -75.1660   -7.3330 O         1 <0>         0.0000
  39571 WAT       -31.9320  -75.1660   -7.0830 O         1 <0>         0.0000
  39572 WAT       -31.9320  -75.1660   -6.8330 O         1 <0>         0.0000
  39573 WAT       -31.9320  -75.1660   -6.5830 O         1 <0>         0.0002
  39574 WAT       -31.9320  -75.1660   -6.3330 O         1 <0>         0.0011
  39575 WAT       -31.9320  -75.1660   -6.0830 O         1 <0>         0.0035
  39576 WAT       -31.9320  -75.1660   -5.8330 O         1 <0>         0.0071
  39577 WAT       -31.9320  -75.1660   -5.5830 O         1 <0>         0.0097
  39578 WAT       -31.9320  -75.1660   -5.3330 O         1 <0>         0.0092
  39579 WAT       -31.9320  -75.1660   -5.0830 O         1 <0>         0.0060
  39580 WAT       -31.9320  -75.1660   -4.8330 O         1 <0>         0.0026
  39581 WAT       -31.9320  -75.1660   -4.5830 O         1 <0>         0.0007
  39582 WAT       -31.9320  -75.1660   -4.3330 O         1 <0>         0.0001
  39583 WAT       -31.9320  -75.1660   -4.0830 O         1 <0>         0.0000
  39584 WAT       -31.9320  -75.1660   -3.8330 O         1 <0>         0.0000
  39585 WAT       -31.9320  -75.1660   -3.5830 O         1 <0>         0.0000
  39586 WAT       -31.9320  -75.1660   -3.3330 O         1 <0>         0.0000
  39587 WAT       -31.9320  -75.1660   -3.0830 O         1 <0>         0.0000
  39588 WAT       -31.9320  -75.1660   -2.8330 O         1 <0>         0.0000
  39589 WAT       -31.9320  -75.1660   -2.5830 O         1 <0>         0.0000
  39590 WAT       -31.9320  -75.1660   -2.3330 O         1 <0>         0.0000
  39591 WAT       -31.9320  -75.1660   -2.0830 O         1 <0>         0.0000
  39592 WAT       -31.9320  -75.1660   -1.8330 O         1 <0>         0.0000
  39593 WAT       -31.9320  -75.1660   -1.5830 O         1 <0>         0.0000
  39594 WAT       -31.9320  -75.1660   -1.3330 O         1 <0>         0.0000
  39595 WAT       -31.9320  -75.1660   -1.0830 O         1 <0>         0.0000
  39596 WAT       -31.9320  -75.1660   -0.8330 O         1 <0>         0.0000
  39597 WAT       -31.9320  -75.1660   -0.5830 O         1 <0>         0.0000
  39598 WAT       -31.9320  -75.1660   -0.3330 O         1 <0>         0.0000
  39599 WAT       -31.9320  -75.1660   -0.0830 O         1 <0>         0.0000
  39600 WAT       -31.9320  -74.9160   -9.8330 O         1 <0>         0.0000
  39601 WAT       -31.9320  -74.9160   -9.5830 O         1 <0>         0.0000
  39602 WAT       -31.9320  -74.9160   -9.3330 O         1 <0>         0.0000
  39603 WAT       -31.9320  -74.9160   -9.0830 O         1 <0>         0.0000
  39604 WAT       -31.9320  -74.9160   -8.8330 O         1 <0>         0.0000
  39605 WAT       -31.9320  -74.9160   -8.5830 O         1 <0>         0.0000
  39606 WAT       -31.9320  -74.9160   -8.3330 O         1 <0>         0.0000
  39607 WAT       -31.9320  -74.9160   -8.0830 O         1 <0>         0.0000
  39608 WAT       -31.9320  -74.9160   -7.8330 O         1 <0>         0.0000
  39609 WAT       -31.9320  -74.9160   -7.5830 O         1 <0>         0.0000
  39610 WAT       -31.9320  -74.9160   -7.3330 O         1 <0>         0.0000
  39611 WAT       -31.9320  -74.9160   -7.0830 O         1 <0>         0.0000
  39612 WAT       -31.9320  -74.9160   -6.8330 O         1 <0>         0.0000
  39613 WAT       -31.9320  -74.9160   -6.5830 O         1 <0>         0.0005
  39614 WAT       -31.9320  -74.9160   -6.3330 O         1 <0>         0.0025
  39615 WAT       -31.9320  -74.9160   -6.0830 O         1 <0>         0.0073
  39616 WAT       -31.9320  -74.9160   -5.8330 O         1 <0>         0.0142
  39617 WAT       -31.9320  -74.9160   -5.5830 O         1 <0>         0.0194
  39618 WAT       -31.9320  -74.9160   -5.3330 O         1 <0>         0.0189
  39619 WAT       -31.9320  -74.9160   -5.0830 O         1 <0>         0.0130
  39620 WAT       -31.9320  -74.9160   -4.8330 O         1 <0>         0.0062
  39621 WAT       -31.9320  -74.9160   -4.5830 O         1 <0>         0.0019
  39622 WAT       -31.9320  -74.9160   -4.3330 O         1 <0>         0.0003
  39623 WAT       -31.9320  -74.9160   -4.0830 O         1 <0>         0.0000
  39624 WAT       -31.9320  -74.9160   -3.8330 O         1 <0>         0.0000
  39625 WAT       -31.9320  -74.9160   -3.5830 O         1 <0>         0.0000
  39626 WAT       -31.9320  -74.9160   -3.3330 O         1 <0>         0.0000
  39627 WAT       -31.9320  -74.9160   -3.0830 O         1 <0>         0.0000
  39628 WAT       -31.9320  -74.9160   -2.8330 O         1 <0>         0.0000
  39629 WAT       -31.9320  -74.9160   -2.5830 O         1 <0>         0.0000
  39630 WAT       -31.9320  -74.9160   -2.3330 O         1 <0>         0.0000
  39631 WAT       -31.9320  -74.9160   -2.0830 O         1 <0>         0.0000
  39632 WAT       -31.9320  -74.9160   -1.8330 O         1 <0>         0.0000
  39633 WAT       -31.9320  -74.9160   -1.5830 O         1 <0>         0.0000
  39634 WAT       -31.9320  -74.9160   -1.3330 O         1 <0>         0.0000
  39635 WAT       -31.9320  -74.9160   -1.0830 O         1 <0>         0.0000
  39636 WAT       -31.9320  -74.9160   -0.8330 O         1 <0>         0.0000
  39637 WAT       -31.9320  -74.9160   -0.5830 O         1 <0>         0.0000
  39638 WAT       -31.9320  -74.9160   -0.3330 O         1 <0>         0.0000
  39639 WAT       -31.9320  -74.9160   -0.0830 O         1 <0>         0.0000
  39640 WAT       -31.9320  -74.6660   -9.8330 O         1 <0>         0.0000
  39641 WAT       -31.9320  -74.6660   -9.5830 O         1 <0>         0.0000
  39642 WAT       -31.9320  -74.6660   -9.3330 O         1 <0>         0.0000
  39643 WAT       -31.9320  -74.6660   -9.0830 O         1 <0>         0.0000
  39644 WAT       -31.9320  -74.6660   -8.8330 O         1 <0>         0.0000
  39645 WAT       -31.9320  -74.6660   -8.5830 O         1 <0>         0.0000
  39646 WAT       -31.9320  -74.6660   -8.3330 O         1 <0>         0.0000
  39647 WAT       -31.9320  -74.6660   -8.0830 O         1 <0>         0.0000
  39648 WAT       -31.9320  -74.6660   -7.8330 O         1 <0>         0.0000
  39649 WAT       -31.9320  -74.6660   -7.5830 O         1 <0>         0.0000
  39650 WAT       -31.9320  -74.6660   -7.3330 O         1 <0>         0.0000
  39651 WAT       -31.9320  -74.6660   -7.0830 O         1 <0>         0.0000
  39652 WAT       -31.9320  -74.6660   -6.8330 O         1 <0>         0.0002
  39653 WAT       -31.9320  -74.6660   -6.5830 O         1 <0>         0.0012
  39654 WAT       -31.9320  -74.6660   -6.3330 O         1 <0>         0.0046
  39655 WAT       -31.9320  -74.6660   -6.0830 O         1 <0>         0.0118
  39656 WAT       -31.9320  -74.6660   -5.8330 O         1 <0>         0.0218
  39657 WAT       -31.9320  -74.6660   -5.5830 O         1 <0>         0.0294
  39658 WAT       -31.9320  -74.6660   -5.3330 O         1 <0>         0.0290
  39659 WAT       -31.9320  -74.6660   -5.0830 O         1 <0>         0.0207
  39660 WAT       -31.9320  -74.6660   -4.8330 O         1 <0>         0.0105
  39661 WAT       -31.9320  -74.6660   -4.5830 O         1 <0>         0.0038
  39662 WAT       -31.9320  -74.6660   -4.3330 O         1 <0>         0.0009
  39663 WAT       -31.9320  -74.6660   -4.0830 O         1 <0>         0.0001
  39664 WAT       -31.9320  -74.6660   -3.8330 O         1 <0>         0.0000
  39665 WAT       -31.9320  -74.6660   -3.5830 O         1 <0>         0.0000
  39666 WAT       -31.9320  -74.6660   -3.3330 O         1 <0>         0.0000
  39667 WAT       -31.9320  -74.6660   -3.0830 O         1 <0>         0.0000
  39668 WAT       -31.9320  -74.6660   -2.8330 O         1 <0>         0.0000
  39669 WAT       -31.9320  -74.6660   -2.5830 O         1 <0>         0.0000
  39670 WAT       -31.9320  -74.6660   -2.3330 O         1 <0>         0.0000
  39671 WAT       -31.9320  -74.6660   -2.0830 O         1 <0>         0.0000
  39672 WAT       -31.9320  -74.6660   -1.8330 O         1 <0>         0.0000
  39673 WAT       -31.9320  -74.6660   -1.5830 O         1 <0>         0.0000
  39674 WAT       -31.9320  -74.6660   -1.3330 O         1 <0>         0.0000
  39675 WAT       -31.9320  -74.6660   -1.0830 O         1 <0>         0.0000
  39676 WAT       -31.9320  -74.6660   -0.8330 O         1 <0>         0.0000
  39677 WAT       -31.9320  -74.6660   -0.5830 O         1 <0>         0.0000
  39678 WAT       -31.9320  -74.6660   -0.3330 O         1 <0>         0.0000
  39679 WAT       -31.9320  -74.6660   -0.0830 O         1 <0>         0.0000
  39680 WAT       -31.9320  -74.4160   -9.8330 O         1 <0>         0.0000
  39681 WAT       -31.9320  -74.4160   -9.5830 O         1 <0>         0.0000
  39682 WAT       -31.9320  -74.4160   -9.3330 O         1 <0>         0.0000
  39683 WAT       -31.9320  -74.4160   -9.0830 O         1 <0>         0.0000
  39684 WAT       -31.9320  -74.4160   -8.8330 O         1 <0>         0.0000
  39685 WAT       -31.9320  -74.4160   -8.5830 O         1 <0>         0.0000
  39686 WAT       -31.9320  -74.4160   -8.3330 O         1 <0>         0.0000
  39687 WAT       -31.9320  -74.4160   -8.0830 O         1 <0>         0.0000
  39688 WAT       -31.9320  -74.4160   -7.8330 O         1 <0>         0.0000
  39689 WAT       -31.9320  -74.4160   -7.5830 O         1 <0>         0.0000
  39690 WAT       -31.9320  -74.4160   -7.3330 O         1 <0>         0.0000
  39691 WAT       -31.9320  -74.4160   -7.0830 O         1 <0>         0.0001
  39692 WAT       -31.9320  -74.4160   -6.8330 O         1 <0>         0.0007
  39693 WAT       -31.9320  -74.4160   -6.5830 O         1 <0>         0.0025
  39694 WAT       -31.9320  -74.4160   -6.3330 O         1 <0>         0.0072
  39695 WAT       -31.9320  -74.4160   -6.0830 O         1 <0>         0.0159
  39696 WAT       -31.9320  -74.4160   -5.8330 O         1 <0>         0.0270
  39697 WAT       -31.9320  -74.4160   -5.5830 O         1 <0>         0.0351
  39698 WAT       -31.9320  -74.4160   -5.3330 O         1 <0>         0.0345
  39699 WAT       -31.9320  -74.4160   -5.0830 O         1 <0>         0.0252
  39700 WAT       -31.9320  -74.4160   -4.8330 O         1 <0>         0.0135
  39701 WAT       -31.9320  -74.4160   -4.5830 O         1 <0>         0.0053
  39702 WAT       -31.9320  -74.4160   -4.3330 O         1 <0>         0.0014
  39703 WAT       -31.9320  -74.4160   -4.0830 O         1 <0>         0.0003
  39704 WAT       -31.9320  -74.4160   -3.8330 O         1 <0>         0.0001
  39705 WAT       -31.9320  -74.4160   -3.5830 O         1 <0>         0.0003
  39706 WAT       -31.9320  -74.4160   -3.3330 O         1 <0>         0.0007
  39707 WAT       -31.9320  -74.4160   -3.0830 O         1 <0>         0.0010
  39708 WAT       -31.9320  -74.4160   -2.8330 O         1 <0>         0.0009
  39709 WAT       -31.9320  -74.4160   -2.5830 O         1 <0>         0.0004
  39710 WAT       -31.9320  -74.4160   -2.3330 O         1 <0>         0.0001
  39711 WAT       -31.9320  -74.4160   -2.0830 O         1 <0>         0.0000
  39712 WAT       -31.9320  -74.4160   -1.8330 O         1 <0>         0.0000
  39713 WAT       -31.9320  -74.4160   -1.5830 O         1 <0>         0.0000
  39714 WAT       -31.9320  -74.4160   -1.3330 O         1 <0>         0.0000
  39715 WAT       -31.9320  -74.4160   -1.0830 O         1 <0>         0.0000
  39716 WAT       -31.9320  -74.4160   -0.8330 O         1 <0>         0.0000
  39717 WAT       -31.9320  -74.4160   -0.5830 O         1 <0>         0.0000
  39718 WAT       -31.9320  -74.4160   -0.3330 O         1 <0>         0.0000
  39719 WAT       -31.9320  -74.4160   -0.0830 O         1 <0>         0.0000
  39720 WAT       -31.9320  -74.1660   -9.8330 O         1 <0>         0.0000
  39721 WAT       -31.9320  -74.1660   -9.5830 O         1 <0>         0.0000
  39722 WAT       -31.9320  -74.1660   -9.3330 O         1 <0>         0.0000
  39723 WAT       -31.9320  -74.1660   -9.0830 O         1 <0>         0.0000
  39724 WAT       -31.9320  -74.1660   -8.8330 O         1 <0>         0.0000
  39725 WAT       -31.9320  -74.1660   -8.5830 O         1 <0>         0.0000
  39726 WAT       -31.9320  -74.1660   -8.3330 O         1 <0>         0.0000
  39727 WAT       -31.9320  -74.1660   -8.0830 O         1 <0>         0.0000
  39728 WAT       -31.9320  -74.1660   -7.8330 O         1 <0>         0.0000
  39729 WAT       -31.9320  -74.1660   -7.5830 O         1 <0>         0.0000
  39730 WAT       -31.9320  -74.1660   -7.3330 O         1 <0>         0.0001
  39731 WAT       -31.9320  -74.1660   -7.0830 O         1 <0>         0.0006
  39732 WAT       -31.9320  -74.1660   -6.8330 O         1 <0>         0.0019
  39733 WAT       -31.9320  -74.1660   -6.5830 O         1 <0>         0.0050
  39734 WAT       -31.9320  -74.1660   -6.3330 O         1 <0>         0.0106
  39735 WAT       -31.9320  -74.1660   -6.0830 O         1 <0>         0.0193
  39736 WAT       -31.9320  -74.1660   -5.8330 O         1 <0>         0.0288
  39737 WAT       -31.9320  -74.1660   -5.5830 O         1 <0>         0.0347
  39738 WAT       -31.9320  -74.1660   -5.3330 O         1 <0>         0.0329
  39739 WAT       -31.9320  -74.1660   -5.0830 O         1 <0>         0.0242
  39740 WAT       -31.9320  -74.1660   -4.8330 O         1 <0>         0.0135
  39741 WAT       -31.9320  -74.1660   -4.5830 O         1 <0>         0.0057
  39742 WAT       -31.9320  -74.1660   -4.3330 O         1 <0>         0.0018
  39743 WAT       -31.9320  -74.1660   -4.0830 O         1 <0>         0.0005
  39744 WAT       -31.9320  -74.1660   -3.8330 O         1 <0>         0.0006
  39745 WAT       -31.9320  -74.1660   -3.5830 O         1 <0>         0.0021
  39746 WAT       -31.9320  -74.1660   -3.3330 O         1 <0>         0.0045
  39747 WAT       -31.9320  -74.1660   -3.0830 O         1 <0>         0.0060
  39748 WAT       -31.9320  -74.1660   -2.8330 O         1 <0>         0.0050
  39749 WAT       -31.9320  -74.1660   -2.5830 O         1 <0>         0.0024
  39750 WAT       -31.9320  -74.1660   -2.3330 O         1 <0>         0.0006
  39751 WAT       -31.9320  -74.1660   -2.0830 O         1 <0>         0.0000
  39752 WAT       -31.9320  -74.1660   -1.8330 O         1 <0>         0.0000
  39753 WAT       -31.9320  -74.1660   -1.5830 O         1 <0>         0.0000
  39754 WAT       -31.9320  -74.1660   -1.3330 O         1 <0>         0.0000
  39755 WAT       -31.9320  -74.1660   -1.0830 O         1 <0>         0.0000
  39756 WAT       -31.9320  -74.1660   -0.8330 O         1 <0>         0.0000
  39757 WAT       -31.9320  -74.1660   -0.5830 O         1 <0>         0.0000
  39758 WAT       -31.9320  -74.1660   -0.3330 O         1 <0>         0.0000
  39759 WAT       -31.9320  -74.1660   -0.0830 O         1 <0>         0.0000
  39760 WAT       -31.9320  -73.9160   -9.8330 O         1 <0>         0.0000
  39761 WAT       -31.9320  -73.9160   -9.5830 O         1 <0>         0.0000
  39762 WAT       -31.9320  -73.9160   -9.3330 O         1 <0>         0.0000
  39763 WAT       -31.9320  -73.9160   -9.0830 O         1 <0>         0.0000
  39764 WAT       -31.9320  -73.9160   -8.8330 O         1 <0>         0.0000
  39765 WAT       -31.9320  -73.9160   -8.5830 O         1 <0>         0.0000
  39766 WAT       -31.9320  -73.9160   -8.3330 O         1 <0>         0.0000
  39767 WAT       -31.9320  -73.9160   -8.0830 O         1 <0>         0.0000
  39768 WAT       -31.9320  -73.9160   -7.8330 O         1 <0>         0.0000
  39769 WAT       -31.9320  -73.9160   -7.5830 O         1 <0>         0.0000
  39770 WAT       -31.9320  -73.9160   -7.3330 O         1 <0>         0.0004
  39771 WAT       -31.9320  -73.9160   -7.0830 O         1 <0>         0.0015
  39772 WAT       -31.9320  -73.9160   -6.8330 O         1 <0>         0.0042
  39773 WAT       -31.9320  -73.9160   -6.5830 O         1 <0>         0.0088
  39774 WAT       -31.9320  -73.9160   -6.3330 O         1 <0>         0.0151
  39775 WAT       -31.9320  -73.9160   -6.0830 O         1 <0>         0.0222
  39776 WAT       -31.9320  -73.9160   -5.8330 O         1 <0>         0.0279
  39777 WAT       -31.9320  -73.9160   -5.5830 O         1 <0>         0.0296
  39778 WAT       -31.9320  -73.9160   -5.3330 O         1 <0>         0.0262
  39779 WAT       -31.9320  -73.9160   -5.0830 O         1 <0>         0.0190
  39780 WAT       -31.9320  -73.9160   -4.8330 O         1 <0>         0.0110
  39781 WAT       -31.9320  -73.9160   -4.5830 O         1 <0>         0.0051
  39782 WAT       -31.9320  -73.9160   -4.3330 O         1 <0>         0.0019
  39783 WAT       -31.9320  -73.9160   -4.0830 O         1 <0>         0.0009
  39784 WAT       -31.9320  -73.9160   -3.8330 O         1 <0>         0.0022
  39785 WAT       -31.9320  -73.9160   -3.5830 O         1 <0>         0.0069
  39786 WAT       -31.9320  -73.9160   -3.3330 O         1 <0>         0.0133
  39787 WAT       -31.9320  -73.9160   -3.0830 O         1 <0>         0.0166
  39788 WAT       -31.9320  -73.9160   -2.8330 O         1 <0>         0.0134
  39789 WAT       -31.9320  -73.9160   -2.5830 O         1 <0>         0.0067
  39790 WAT       -31.9320  -73.9160   -2.3330 O         1 <0>         0.0017
  39791 WAT       -31.9320  -73.9160   -2.0830 O         1 <0>         0.0002
  39792 WAT       -31.9320  -73.9160   -1.8330 O         1 <0>         0.0000
  39793 WAT       -31.9320  -73.9160   -1.5830 O         1 <0>         0.0000
  39794 WAT       -31.9320  -73.9160   -1.3330 O         1 <0>         0.0000
  39795 WAT       -31.9320  -73.9160   -1.0830 O         1 <0>         0.0000
  39796 WAT       -31.9320  -73.9160   -0.8330 O         1 <0>         0.0000
  39797 WAT       -31.9320  -73.9160   -0.5830 O         1 <0>         0.0000
  39798 WAT       -31.9320  -73.9160   -0.3330 O         1 <0>         0.0000
  39799 WAT       -31.9320  -73.9160   -0.0830 O         1 <0>         0.0000
  39800 WAT       -31.9320  -73.6660   -9.8330 O         1 <0>         0.0000
  39801 WAT       -31.9320  -73.6660   -9.5830 O         1 <0>         0.0000
  39802 WAT       -31.9320  -73.6660   -9.3330 O         1 <0>         0.0000
  39803 WAT       -31.9320  -73.6660   -9.0830 O         1 <0>         0.0000
  39804 WAT       -31.9320  -73.6660   -8.8330 O         1 <0>         0.0000
  39805 WAT       -31.9320  -73.6660   -8.5830 O         1 <0>         0.0000
  39806 WAT       -31.9320  -73.6660   -8.3330 O         1 <0>         0.0000
  39807 WAT       -31.9320  -73.6660   -8.0830 O         1 <0>         0.0000
  39808 WAT       -31.9320  -73.6660   -7.8330 O         1 <0>         0.0000
  39809 WAT       -31.9320  -73.6660   -7.5830 O         1 <0>         0.0001
  39810 WAT       -31.9320  -73.6660   -7.3330 O         1 <0>         0.0007
  39811 WAT       -31.9320  -73.6660   -7.0830 O         1 <0>         0.0027
  39812 WAT       -31.9320  -73.6660   -6.8330 O         1 <0>         0.0068
  39813 WAT       -31.9320  -73.6660   -6.5830 O         1 <0>         0.0129
  39814 WAT       -31.9320  -73.6660   -6.3330 O         1 <0>         0.0194
  39815 WAT       -31.9320  -73.6660   -6.0830 O         1 <0>         0.0242
  39816 WAT       -31.9320  -73.6660   -5.8330 O         1 <0>         0.0254
  39817 WAT       -31.9320  -73.6660   -5.5830 O         1 <0>         0.0232
  39818 WAT       -31.9320  -73.6660   -5.3330 O         1 <0>         0.0187
  39819 WAT       -31.9320  -73.6660   -5.0830 O         1 <0>         0.0133
  39820 WAT       -31.9320  -73.6660   -4.8330 O         1 <0>         0.0083
  39821 WAT       -31.9320  -73.6660   -4.5830 O         1 <0>         0.0044
  39822 WAT       -31.9320  -73.6660   -4.3330 O         1 <0>         0.0020
  39823 WAT       -31.9320  -73.6660   -4.0830 O         1 <0>         0.0016
  39824 WAT       -31.9320  -73.6660   -3.8330 O         1 <0>         0.0046
  39825 WAT       -31.9320  -73.6660   -3.5830 O         1 <0>         0.0130
  39826 WAT       -31.9320  -73.6660   -3.3330 O         1 <0>         0.0237
  39827 WAT       -31.9320  -73.6660   -3.0830 O         1 <0>         0.0282
  39828 WAT       -31.9320  -73.6660   -2.8330 O         1 <0>         0.0219
  39829 WAT       -31.9320  -73.6660   -2.5830 O         1 <0>         0.0108
  39830 WAT       -31.9320  -73.6660   -2.3330 O         1 <0>         0.0029
  39831 WAT       -31.9320  -73.6660   -2.0830 O         1 <0>         0.0003
  39832 WAT       -31.9320  -73.6660   -1.8330 O         1 <0>         0.0000
  39833 WAT       -31.9320  -73.6660   -1.5830 O         1 <0>         0.0000
  39834 WAT       -31.9320  -73.6660   -1.3330 O         1 <0>         0.0000
  39835 WAT       -31.9320  -73.6660   -1.0830 O         1 <0>         0.0000
  39836 WAT       -31.9320  -73.6660   -0.8330 O         1 <0>         0.0000
  39837 WAT       -31.9320  -73.6660   -0.5830 O         1 <0>         0.0000
  39838 WAT       -31.9320  -73.6660   -0.3330 O         1 <0>         0.0000
  39839 WAT       -31.9320  -73.6660   -0.0830 O         1 <0>         0.0000
  39840 WAT       -31.9320  -73.4160   -9.8330 O         1 <0>         0.0000
  39841 WAT       -31.9320  -73.4160   -9.5830 O         1 <0>         0.0000
  39842 WAT       -31.9320  -73.4160   -9.3330 O         1 <0>         0.0000
  39843 WAT       -31.9320  -73.4160   -9.0830 O         1 <0>         0.0000
  39844 WAT       -31.9320  -73.4160   -8.8330 O         1 <0>         0.0000
  39845 WAT       -31.9320  -73.4160   -8.5830 O         1 <0>         0.0000
  39846 WAT       -31.9320  -73.4160   -8.3330 O         1 <0>         0.0000
  39847 WAT       -31.9320  -73.4160   -8.0830 O         1 <0>         0.0000
  39848 WAT       -31.9320  -73.4160   -7.8330 O         1 <0>         0.0000
  39849 WAT       -31.9320  -73.4160   -7.5830 O         1 <0>         0.0001
  39850 WAT       -31.9320  -73.4160   -7.3330 O         1 <0>         0.0009
  39851 WAT       -31.9320  -73.4160   -7.0830 O         1 <0>         0.0034
  39852 WAT       -31.9320  -73.4160   -6.8330 O         1 <0>         0.0082
  39853 WAT       -31.9320  -73.4160   -6.5830 O         1 <0>         0.0147
  39854 WAT       -31.9320  -73.4160   -6.3330 O         1 <0>         0.0207
  39855 WAT       -31.9320  -73.4160   -6.0830 O         1 <0>         0.0235
  39856 WAT       -31.9320  -73.4160   -5.8330 O         1 <0>         0.0220
  39857 WAT       -31.9320  -73.4160   -5.5830 O         1 <0>         0.0177
  39858 WAT       -31.9320  -73.4160   -5.3330 O         1 <0>         0.0134
  39859 WAT       -31.9320  -73.4160   -5.0830 O         1 <0>         0.0100
  39860 WAT       -31.9320  -73.4160   -4.8330 O         1 <0>         0.0073
  39861 WAT       -31.9320  -73.4160   -4.5830 O         1 <0>         0.0048
  39862 WAT       -31.9320  -73.4160   -4.3330 O         1 <0>         0.0028
  39863 WAT       -31.9320  -73.4160   -4.0830 O         1 <0>         0.0025
  39864 WAT       -31.9320  -73.4160   -3.8330 O         1 <0>         0.0065
  39865 WAT       -31.9320  -73.4160   -3.5830 O         1 <0>         0.0166
  39866 WAT       -31.9320  -73.4160   -3.3330 O         1 <0>         0.0288
  39867 WAT       -31.9320  -73.4160   -3.0830 O         1 <0>         0.0327
  39868 WAT       -31.9320  -73.4160   -2.8330 O         1 <0>         0.0243
  39869 WAT       -31.9320  -73.4160   -2.5830 O         1 <0>         0.0114
  39870 WAT       -31.9320  -73.4160   -2.3330 O         1 <0>         0.0029
  39871 WAT       -31.9320  -73.4160   -2.0830 O         1 <0>         0.0003
  39872 WAT       -31.9320  -73.4160   -1.8330 O         1 <0>         0.0000
  39873 WAT       -31.9320  -73.4160   -1.5830 O         1 <0>         0.0000
  39874 WAT       -31.9320  -73.4160   -1.3330 O         1 <0>         0.0000
  39875 WAT       -31.9320  -73.4160   -1.0830 O         1 <0>         0.0000
  39876 WAT       -31.9320  -73.4160   -0.8330 O         1 <0>         0.0000
  39877 WAT       -31.9320  -73.4160   -0.5830 O         1 <0>         0.0000
  39878 WAT       -31.9320  -73.4160   -0.3330 O         1 <0>         0.0000
  39879 WAT       -31.9320  -73.4160   -0.0830 O         1 <0>         0.0000
  39880 WAT       -31.9320  -73.1660   -9.8330 O         1 <0>         0.0000
  39881 WAT       -31.9320  -73.1660   -9.5830 O         1 <0>         0.0000
  39882 WAT       -31.9320  -73.1660   -9.3330 O         1 <0>         0.0000
  39883 WAT       -31.9320  -73.1660   -9.0830 O         1 <0>         0.0000
  39884 WAT       -31.9320  -73.1660   -8.8330 O         1 <0>         0.0000
  39885 WAT       -31.9320  -73.1660   -8.5830 O         1 <0>         0.0000
  39886 WAT       -31.9320  -73.1660   -8.3330 O         1 <0>         0.0000
  39887 WAT       -31.9320  -73.1660   -8.0830 O         1 <0>         0.0000
  39888 WAT       -31.9320  -73.1660   -7.8330 O         1 <0>         0.0000
  39889 WAT       -31.9320  -73.1660   -7.5830 O         1 <0>         0.0002
  39890 WAT       -31.9320  -73.1660   -7.3330 O         1 <0>         0.0009
  39891 WAT       -31.9320  -73.1660   -7.0830 O         1 <0>         0.0031
  39892 WAT       -31.9320  -73.1660   -6.8330 O         1 <0>         0.0073
  39893 WAT       -31.9320  -73.1660   -6.5830 O         1 <0>         0.0126
  39894 WAT       -31.9320  -73.1660   -6.3330 O         1 <0>         0.0172
  39895 WAT       -31.9320  -73.1660   -6.0830 O         1 <0>         0.0189
  39896 WAT       -31.9320  -73.1660   -5.8330 O         1 <0>         0.0169
  39897 WAT       -31.9320  -73.1660   -5.5830 O         1 <0>         0.0132
  39898 WAT       -31.9320  -73.1660   -5.3330 O         1 <0>         0.0107
  39899 WAT       -31.9320  -73.1660   -5.0830 O         1 <0>         0.0095
  39900 WAT       -31.9320  -73.1660   -4.8330 O         1 <0>         0.0085
  39901 WAT       -31.9320  -73.1660   -4.5830 O         1 <0>         0.0066
  39902 WAT       -31.9320  -73.1660   -4.3330 O         1 <0>         0.0043
  39903 WAT       -31.9320  -73.1660   -4.0830 O         1 <0>         0.0036
  39904 WAT       -31.9320  -73.1660   -3.8330 O         1 <0>         0.0071
  39905 WAT       -31.9320  -73.1660   -3.5830 O         1 <0>         0.0160
  39906 WAT       -31.9320  -73.1660   -3.3330 O         1 <0>         0.0261
  39907 WAT       -31.9320  -73.1660   -3.0830 O         1 <0>         0.0281
  39908 WAT       -31.9320  -73.1660   -2.8330 O         1 <0>         0.0197
  39909 WAT       -31.9320  -73.1660   -2.5830 O         1 <0>         0.0086
  39910 WAT       -31.9320  -73.1660   -2.3330 O         1 <0>         0.0019
  39911 WAT       -31.9320  -73.1660   -2.0830 O         1 <0>         0.0002
  39912 WAT       -31.9320  -73.1660   -1.8330 O         1 <0>         0.0000
  39913 WAT       -31.9320  -73.1660   -1.5830 O         1 <0>         0.0000
  39914 WAT       -31.9320  -73.1660   -1.3330 O         1 <0>         0.0000
  39915 WAT       -31.9320  -73.1660   -1.0830 O         1 <0>         0.0000
  39916 WAT       -31.9320  -73.1660   -0.8330 O         1 <0>         0.0000
  39917 WAT       -31.9320  -73.1660   -0.5830 O         1 <0>         0.0000
  39918 WAT       -31.9320  -73.1660   -0.3330 O         1 <0>         0.0000
  39919 WAT       -31.9320  -73.1660   -0.0830 O         1 <0>         0.0000
  39920 WAT       -31.9320  -72.9160   -9.8330 O         1 <0>         0.0000
  39921 WAT       -31.9320  -72.9160   -9.5830 O         1 <0>         0.0000
  39922 WAT       -31.9320  -72.9160   -9.3330 O         1 <0>         0.0000
  39923 WAT       -31.9320  -72.9160   -9.0830 O         1 <0>         0.0000
  39924 WAT       -31.9320  -72.9160   -8.8330 O         1 <0>         0.0000
  39925 WAT       -31.9320  -72.9160   -8.5830 O         1 <0>         0.0000
  39926 WAT       -31.9320  -72.9160   -8.3330 O         1 <0>         0.0000
  39927 WAT       -31.9320  -72.9160   -8.0830 O         1 <0>         0.0000
  39928 WAT       -31.9320  -72.9160   -7.8330 O         1 <0>         0.0000
  39929 WAT       -31.9320  -72.9160   -7.5830 O         1 <0>         0.0002
  39930 WAT       -31.9320  -72.9160   -7.3330 O         1 <0>         0.0008
  39931 WAT       -31.9320  -72.9160   -7.0830 O         1 <0>         0.0022
  39932 WAT       -31.9320  -72.9160   -6.8330 O         1 <0>         0.0049
  39933 WAT       -31.9320  -72.9160   -6.5830 O         1 <0>         0.0081
  39934 WAT       -31.9320  -72.9160   -6.3330 O         1 <0>         0.0109
  39935 WAT       -31.9320  -72.9160   -6.0830 O         1 <0>         0.0120
  39936 WAT       -31.9320  -72.9160   -5.8330 O         1 <0>         0.0110
  39937 WAT       -31.9320  -72.9160   -5.5830 O         1 <0>         0.0097
  39938 WAT       -31.9320  -72.9160   -5.3330 O         1 <0>         0.0096
  39939 WAT       -31.9320  -72.9160   -5.0830 O         1 <0>         0.0107
  39940 WAT       -31.9320  -72.9160   -4.8330 O         1 <0>         0.0110
  39941 WAT       -31.9320  -72.9160   -4.5830 O         1 <0>         0.0093
  39942 WAT       -31.9320  -72.9160   -4.3330 O         1 <0>         0.0066
  39943 WAT       -31.9320  -72.9160   -4.0830 O         1 <0>         0.0050
  39944 WAT       -31.9320  -72.9160   -3.8330 O         1 <0>         0.0072
  39945 WAT       -31.9320  -72.9160   -3.5830 O         1 <0>         0.0136
  39946 WAT       -31.9320  -72.9160   -3.3330 O         1 <0>         0.0202
  39947 WAT       -31.9320  -72.9160   -3.0830 O         1 <0>         0.0203
  39948 WAT       -31.9320  -72.9160   -2.8330 O         1 <0>         0.0133
  39949 WAT       -31.9320  -72.9160   -2.5830 O         1 <0>         0.0052
  39950 WAT       -31.9320  -72.9160   -2.3330 O         1 <0>         0.0010
  39951 WAT       -31.9320  -72.9160   -2.0830 O         1 <0>         0.0001
  39952 WAT       -31.9320  -72.9160   -1.8330 O         1 <0>         0.0000
  39953 WAT       -31.9320  -72.9160   -1.5830 O         1 <0>         0.0000
  39954 WAT       -31.9320  -72.9160   -1.3330 O         1 <0>         0.0000
  39955 WAT       -31.9320  -72.9160   -1.0830 O         1 <0>         0.0000
  39956 WAT       -31.9320  -72.9160   -0.8330 O         1 <0>         0.0000
  39957 WAT       -31.9320  -72.9160   -0.5830 O         1 <0>         0.0000
  39958 WAT       -31.9320  -72.9160   -0.3330 O         1 <0>         0.0000
  39959 WAT       -31.9320  -72.9160   -0.0830 O         1 <0>         0.0000
  39960 WAT       -31.9320  -72.6660   -9.8330 O         1 <0>         0.0000
  39961 WAT       -31.9320  -72.6660   -9.5830 O         1 <0>         0.0000
  39962 WAT       -31.9320  -72.6660   -9.3330 O         1 <0>         0.0000
  39963 WAT       -31.9320  -72.6660   -9.0830 O         1 <0>         0.0000
  39964 WAT       -31.9320  -72.6660   -8.8330 O         1 <0>         0.0000
  39965 WAT       -31.9320  -72.6660   -8.5830 O         1 <0>         0.0000
  39966 WAT       -31.9320  -72.6660   -8.3330 O         1 <0>         0.0000
  39967 WAT       -31.9320  -72.6660   -8.0830 O         1 <0>         0.0000
  39968 WAT       -31.9320  -72.6660   -7.8330 O         1 <0>         0.0001
  39969 WAT       -31.9320  -72.6660   -7.5830 O         1 <0>         0.0002
  39970 WAT       -31.9320  -72.6660   -7.3330 O         1 <0>         0.0006
  39971 WAT       -31.9320  -72.6660   -7.0830 O         1 <0>         0.0013
  39972 WAT       -31.9320  -72.6660   -6.8330 O         1 <0>         0.0026
  39973 WAT       -31.9320  -72.6660   -6.5830 O         1 <0>         0.0040
  39974 WAT       -31.9320  -72.6660   -6.3330 O         1 <0>         0.0052
  39975 WAT       -31.9320  -72.6660   -6.0830 O         1 <0>         0.0058
  39976 WAT       -31.9320  -72.6660   -5.8330 O         1 <0>         0.0060
  39977 WAT       -31.9320  -72.6660   -5.5830 O         1 <0>         0.0067
  39978 WAT       -31.9320  -72.6660   -5.3330 O         1 <0>         0.0088
  39979 WAT       -31.9320  -72.6660   -5.0830 O         1 <0>         0.0115
  39980 WAT       -31.9320  -72.6660   -4.8330 O         1 <0>         0.0128
  39981 WAT       -31.9320  -72.6660   -4.5830 O         1 <0>         0.0115
  39982 WAT       -31.9320  -72.6660   -4.3330 O         1 <0>         0.0086
  39983 WAT       -31.9320  -72.6660   -4.0830 O         1 <0>         0.0066
  39984 WAT       -31.9320  -72.6660   -3.8330 O         1 <0>         0.0073
  39985 WAT       -31.9320  -72.6660   -3.5830 O         1 <0>         0.0113
  39986 WAT       -31.9320  -72.6660   -3.3330 O         1 <0>         0.0150
  39987 WAT       -31.9320  -72.6660   -3.0830 O         1 <0>         0.0139
  39988 WAT       -31.9320  -72.6660   -2.8330 O         1 <0>         0.0085
  39989 WAT       -31.9320  -72.6660   -2.5830 O         1 <0>         0.0031
  39990 WAT       -31.9320  -72.6660   -2.3330 O         1 <0>         0.0006
  39991 WAT       -31.9320  -72.6660   -2.0830 O         1 <0>         0.0000
  39992 WAT       -31.9320  -72.6660   -1.8330 O         1 <0>         0.0000
  39993 WAT       -31.9320  -72.6660   -1.5830 O         1 <0>         0.0000
  39994 WAT       -31.9320  -72.6660   -1.3330 O         1 <0>         0.0000
  39995 WAT       -31.9320  -72.6660   -1.0830 O         1 <0>         0.0000
  39996 WAT       -31.9320  -72.6660   -0.8330 O         1 <0>         0.0000
  39997 WAT       -31.9320  -72.6660   -0.5830 O         1 <0>         0.0000
  39998 WAT       -31.9320  -72.6660   -0.3330 O         1 <0>         0.0000
  39999 WAT       -31.9320  -72.6660   -0.0830 O         1 <0>         0.0000
  40000 WAT       -31.9320  -72.4160   -9.8330 O         1 <0>         0.0000
  40001 WAT       -31.9320  -72.4160   -9.5830 O         1 <0>         0.0000
  40002 WAT       -31.9320  -72.4160   -9.3330 O         1 <0>         0.0000
  40003 WAT       -31.9320  -72.4160   -9.0830 O         1 <0>         0.0000
  40004 WAT       -31.9320  -72.4160   -8.8330 O         1 <0>         0.0000
  40005 WAT       -31.9320  -72.4160   -8.5830 O         1 <0>         0.0000
  40006 WAT       -31.9320  -72.4160   -8.3330 O         1 <0>         0.0000
  40007 WAT       -31.9320  -72.4160   -8.0830 O         1 <0>         0.0001
  40008 WAT       -31.9320  -72.4160   -7.8330 O         1 <0>         0.0003
  40009 WAT       -31.9320  -72.4160   -7.5830 O         1 <0>         0.0004
  40010 WAT       -31.9320  -72.4160   -7.3330 O         1 <0>         0.0005
  40011 WAT       -31.9320  -72.4160   -7.0830 O         1 <0>         0.0008
  40012 WAT       -31.9320  -72.4160   -6.8330 O         1 <0>         0.0011
  40013 WAT       -31.9320  -72.4160   -6.5830 O         1 <0>         0.0016
  40014 WAT       -31.9320  -72.4160   -6.3330 O         1 <0>         0.0019
  40015 WAT       -31.9320  -72.4160   -6.0830 O         1 <0>         0.0022
  40016 WAT       -31.9320  -72.4160   -5.8330 O         1 <0>         0.0029
  40017 WAT       -31.9320  -72.4160   -5.5830 O         1 <0>         0.0046
  40018 WAT       -31.9320  -72.4160   -5.3330 O         1 <0>         0.0075
  40019 WAT       -31.9320  -72.4160   -5.0830 O         1 <0>         0.0107
  40020 WAT       -31.9320  -72.4160   -4.8330 O         1 <0>         0.0125
  40021 WAT       -31.9320  -72.4160   -4.5830 O         1 <0>         0.0118
  40022 WAT       -31.9320  -72.4160   -4.3330 O         1 <0>         0.0095
  40023 WAT       -31.9320  -72.4160   -4.0830 O         1 <0>         0.0072
  40024 WAT       -31.9320  -72.4160   -3.8330 O         1 <0>         0.0068
  40025 WAT       -31.9320  -72.4160   -3.5830 O         1 <0>         0.0087
  40026 WAT       -31.9320  -72.4160   -3.3330 O         1 <0>         0.0102
  40027 WAT       -31.9320  -72.4160   -3.0830 O         1 <0>         0.0089
  40028 WAT       -31.9320  -72.4160   -2.8330 O         1 <0>         0.0051
  40029 WAT       -31.9320  -72.4160   -2.5830 O         1 <0>         0.0018
  40030 WAT       -31.9320  -72.4160   -2.3330 O         1 <0>         0.0003
  40031 WAT       -31.9320  -72.4160   -2.0830 O         1 <0>         0.0000
  40032 WAT       -31.9320  -72.4160   -1.8330 O         1 <0>         0.0000
  40033 WAT       -31.9320  -72.4160   -1.5830 O         1 <0>         0.0000
  40034 WAT       -31.9320  -72.4160   -1.3330 O         1 <0>         0.0000
  40035 WAT       -31.9320  -72.4160   -1.0830 O         1 <0>         0.0000
  40036 WAT       -31.9320  -72.4160   -0.8330 O         1 <0>         0.0000
  40037 WAT       -31.9320  -72.4160   -0.5830 O         1 <0>         0.0000
  40038 WAT       -31.9320  -72.4160   -0.3330 O         1 <0>         0.0000
  40039 WAT       -31.9320  -72.4160   -0.0830 O         1 <0>         0.0000
  40040 WAT       -31.9320  -72.1660   -9.8330 O         1 <0>         0.0000
  40041 WAT       -31.9320  -72.1660   -9.5830 O         1 <0>         0.0000
  40042 WAT       -31.9320  -72.1660   -9.3330 O         1 <0>         0.0000
  40043 WAT       -31.9320  -72.1660   -9.0830 O         1 <0>         0.0000
  40044 WAT       -31.9320  -72.1660   -8.8330 O         1 <0>         0.0000
  40045 WAT       -31.9320  -72.1660   -8.5830 O         1 <0>         0.0000
  40046 WAT       -31.9320  -72.1660   -8.3330 O         1 <0>         0.0000
  40047 WAT       -31.9320  -72.1660   -8.0830 O         1 <0>         0.0002
  40048 WAT       -31.9320  -72.1660   -7.8330 O         1 <0>         0.0004
  40049 WAT       -31.9320  -72.1660   -7.5830 O         1 <0>         0.0005
  40050 WAT       -31.9320  -72.1660   -7.3330 O         1 <0>         0.0005
  40051 WAT       -31.9320  -72.1660   -7.0830 O         1 <0>         0.0005
  40052 WAT       -31.9320  -72.1660   -6.8330 O         1 <0>         0.0005
  40053 WAT       -31.9320  -72.1660   -6.5830 O         1 <0>         0.0005
  40054 WAT       -31.9320  -72.1660   -6.3330 O         1 <0>         0.0007
  40055 WAT       -31.9320  -72.1660   -6.0830 O         1 <0>         0.0010
  40056 WAT       -31.9320  -72.1660   -5.8330 O         1 <0>         0.0018
  40057 WAT       -31.9320  -72.1660   -5.5830 O         1 <0>         0.0032
  40058 WAT       -31.9320  -72.1660   -5.3330 O         1 <0>         0.0057
  40059 WAT       -31.9320  -72.1660   -5.0830 O         1 <0>         0.0084
  40060 WAT       -31.9320  -72.1660   -4.8330 O         1 <0>         0.0101
  40061 WAT       -31.9320  -72.1660   -4.5830 O         1 <0>         0.0099
  40062 WAT       -31.9320  -72.1660   -4.3330 O         1 <0>         0.0083
  40063 WAT       -31.9320  -72.1660   -4.0830 O         1 <0>         0.0062
  40064 WAT       -31.9320  -72.1660   -3.8330 O         1 <0>         0.0052
  40065 WAT       -31.9320  -72.1660   -3.5830 O         1 <0>         0.0055
  40066 WAT       -31.9320  -72.1660   -3.3330 O         1 <0>         0.0058
  40067 WAT       -31.9320  -72.1660   -3.0830 O         1 <0>         0.0047
  40068 WAT       -31.9320  -72.1660   -2.8330 O         1 <0>         0.0026
  40069 WAT       -31.9320  -72.1660   -2.5830 O         1 <0>         0.0009
  40070 WAT       -31.9320  -72.1660   -2.3330 O         1 <0>         0.0002
  40071 WAT       -31.9320  -72.1660   -2.0830 O         1 <0>         0.0000
  40072 WAT       -31.9320  -72.1660   -1.8330 O         1 <0>         0.0000
  40073 WAT       -31.9320  -72.1660   -1.5830 O         1 <0>         0.0000
  40074 WAT       -31.9320  -72.1660   -1.3330 O         1 <0>         0.0000
  40075 WAT       -31.9320  -72.1660   -1.0830 O         1 <0>         0.0000
  40076 WAT       -31.9320  -72.1660   -0.8330 O         1 <0>         0.0000
  40077 WAT       -31.9320  -72.1660   -0.5830 O         1 <0>         0.0000
  40078 WAT       -31.9320  -72.1660   -0.3330 O         1 <0>         0.0000
  40079 WAT       -31.9320  -72.1660   -0.0830 O         1 <0>         0.0000
  40080 WAT       -31.9320  -71.9160   -9.8330 O         1 <0>         0.0000
  40081 WAT       -31.9320  -71.9160   -9.5830 O         1 <0>         0.0000
  40082 WAT       -31.9320  -71.9160   -9.3330 O         1 <0>         0.0000
  40083 WAT       -31.9320  -71.9160   -9.0830 O         1 <0>         0.0000
  40084 WAT       -31.9320  -71.9160   -8.8330 O         1 <0>         0.0000
  40085 WAT       -31.9320  -71.9160   -8.5830 O         1 <0>         0.0000
  40086 WAT       -31.9320  -71.9160   -8.3330 O         1 <0>         0.0001
  40087 WAT       -31.9320  -71.9160   -8.0830 O         1 <0>         0.0003
  40088 WAT       -31.9320  -71.9160   -7.8330 O         1 <0>         0.0005
  40089 WAT       -31.9320  -71.9160   -7.5830 O         1 <0>         0.0006
  40090 WAT       -31.9320  -71.9160   -7.3330 O         1 <0>         0.0004
  40091 WAT       -31.9320  -71.9160   -7.0830 O         1 <0>         0.0003
  40092 WAT       -31.9320  -71.9160   -6.8330 O         1 <0>         0.0002
  40093 WAT       -31.9320  -71.9160   -6.5830 O         1 <0>         0.0004
  40094 WAT       -31.9320  -71.9160   -6.3330 O         1 <0>         0.0011
  40095 WAT       -31.9320  -71.9160   -6.0830 O         1 <0>         0.0020
  40096 WAT       -31.9320  -71.9160   -5.8330 O         1 <0>         0.0024
  40097 WAT       -31.9320  -71.9160   -5.5830 O         1 <0>         0.0030
  40098 WAT       -31.9320  -71.9160   -5.3330 O         1 <0>         0.0042
  40099 WAT       -31.9320  -71.9160   -5.0830 O         1 <0>         0.0058
  40100 WAT       -31.9320  -71.9160   -4.8330 O         1 <0>         0.0069
  40101 WAT       -31.9320  -71.9160   -4.5830 O         1 <0>         0.0067
  40102 WAT       -31.9320  -71.9160   -4.3330 O         1 <0>         0.0055
  40103 WAT       -31.9320  -71.9160   -4.0830 O         1 <0>         0.0040
  40104 WAT       -31.9320  -71.9160   -3.8330 O         1 <0>         0.0031
  40105 WAT       -31.9320  -71.9160   -3.5830 O         1 <0>         0.0028
  40106 WAT       -31.9320  -71.9160   -3.3330 O         1 <0>         0.0026
  40107 WAT       -31.9320  -71.9160   -3.0830 O         1 <0>         0.0020
  40108 WAT       -31.9320  -71.9160   -2.8330 O         1 <0>         0.0011
  40109 WAT       -31.9320  -71.9160   -2.5830 O         1 <0>         0.0003
  40110 WAT       -31.9320  -71.9160   -2.3330 O         1 <0>         0.0001
  40111 WAT       -31.9320  -71.9160   -2.0830 O         1 <0>         0.0000
  40112 WAT       -31.9320  -71.9160   -1.8330 O         1 <0>         0.0000
  40113 WAT       -31.9320  -71.9160   -1.5830 O         1 <0>         0.0000
  40114 WAT       -31.9320  -71.9160   -1.3330 O         1 <0>         0.0000
  40115 WAT       -31.9320  -71.9160   -1.0830 O         1 <0>         0.0000
  40116 WAT       -31.9320  -71.9160   -0.8330 O         1 <0>         0.0000
  40117 WAT       -31.9320  -71.9160   -0.5830 O         1 <0>         0.0000
  40118 WAT       -31.9320  -71.9160   -0.3330 O         1 <0>         0.0000
  40119 WAT       -31.9320  -71.9160   -0.0830 O         1 <0>         0.0000
  40120 WAT       -31.9320  -71.6660   -9.8330 O         1 <0>         0.0000
  40121 WAT       -31.9320  -71.6660   -9.5830 O         1 <0>         0.0000
  40122 WAT       -31.9320  -71.6660   -9.3330 O         1 <0>         0.0000
  40123 WAT       -31.9320  -71.6660   -9.0830 O         1 <0>         0.0000
  40124 WAT       -31.9320  -71.6660   -8.8330 O         1 <0>         0.0000
  40125 WAT       -31.9320  -71.6660   -8.5830 O         1 <0>         0.0000
  40126 WAT       -31.9320  -71.6660   -8.3330 O         1 <0>         0.0001
  40127 WAT       -31.9320  -71.6660   -8.0830 O         1 <0>         0.0003
  40128 WAT       -31.9320  -71.6660   -7.8330 O         1 <0>         0.0005
  40129 WAT       -31.9320  -71.6660   -7.5830 O         1 <0>         0.0005
  40130 WAT       -31.9320  -71.6660   -7.3330 O         1 <0>         0.0003
  40131 WAT       -31.9320  -71.6660   -7.0830 O         1 <0>         0.0002
  40132 WAT       -31.9320  -71.6660   -6.8330 O         1 <0>         0.0004
  40133 WAT       -31.9320  -71.6660   -6.5830 O         1 <0>         0.0019
  40134 WAT       -31.9320  -71.6660   -6.3330 O         1 <0>         0.0048
  40135 WAT       -31.9320  -71.6660   -6.0830 O         1 <0>         0.0069
  40136 WAT       -31.9320  -71.6660   -5.8330 O         1 <0>         0.0064
  40137 WAT       -31.9320  -71.6660   -5.5830 O         1 <0>         0.0046
  40138 WAT       -31.9320  -71.6660   -5.3330 O         1 <0>         0.0036
  40139 WAT       -31.9320  -71.6660   -5.0830 O         1 <0>         0.0037
  40140 WAT       -31.9320  -71.6660   -4.8330 O         1 <0>         0.0040
  40141 WAT       -31.9320  -71.6660   -4.5830 O         1 <0>         0.0036
  40142 WAT       -31.9320  -71.6660   -4.3330 O         1 <0>         0.0027
  40143 WAT       -31.9320  -71.6660   -4.0830 O         1 <0>         0.0019
  40144 WAT       -31.9320  -71.6660   -3.8330 O         1 <0>         0.0013
  40145 WAT       -31.9320  -71.6660   -3.5830 O         1 <0>         0.0011
  40146 WAT       -31.9320  -71.6660   -3.3330 O         1 <0>         0.0010
  40147 WAT       -31.9320  -71.6660   -3.0830 O         1 <0>         0.0007
  40148 WAT       -31.9320  -71.6660   -2.8330 O         1 <0>         0.0004
  40149 WAT       -31.9320  -71.6660   -2.5830 O         1 <0>         0.0001
  40150 WAT       -31.9320  -71.6660   -2.3330 O         1 <0>         0.0000
  40151 WAT       -31.9320  -71.6660   -2.0830 O         1 <0>         0.0000
  40152 WAT       -31.9320  -71.6660   -1.8330 O         1 <0>         0.0000
  40153 WAT       -31.9320  -71.6660   -1.5830 O         1 <0>         0.0000
  40154 WAT       -31.9320  -71.6660   -1.3330 O         1 <0>         0.0000
  40155 WAT       -31.9320  -71.6660   -1.0830 O         1 <0>         0.0000
  40156 WAT       -31.9320  -71.6660   -0.8330 O         1 <0>         0.0000
  40157 WAT       -31.9320  -71.6660   -0.5830 O         1 <0>         0.0000
  40158 WAT       -31.9320  -71.6660   -0.3330 O         1 <0>         0.0000
  40159 WAT       -31.9320  -71.6660   -0.0830 O         1 <0>         0.0000
  40160 WAT       -31.9320  -71.4160   -9.8330 O         1 <0>         0.0000
  40161 WAT       -31.9320  -71.4160   -9.5830 O         1 <0>         0.0000
  40162 WAT       -31.9320  -71.4160   -9.3330 O         1 <0>         0.0000
  40163 WAT       -31.9320  -71.4160   -9.0830 O         1 <0>         0.0000
  40164 WAT       -31.9320  -71.4160   -8.8330 O         1 <0>         0.0000
  40165 WAT       -31.9320  -71.4160   -8.5830 O         1 <0>         0.0000
  40166 WAT       -31.9320  -71.4160   -8.3330 O         1 <0>         0.0001
  40167 WAT       -31.9320  -71.4160   -8.0830 O         1 <0>         0.0002
  40168 WAT       -31.9320  -71.4160   -7.8330 O         1 <0>         0.0003
  40169 WAT       -31.9320  -71.4160   -7.5830 O         1 <0>         0.0003
  40170 WAT       -31.9320  -71.4160   -7.3330 O         1 <0>         0.0003
  40171 WAT       -31.9320  -71.4160   -7.0830 O         1 <0>         0.0003
  40172 WAT       -31.9320  -71.4160   -6.8330 O         1 <0>         0.0017
  40173 WAT       -31.9320  -71.4160   -6.5830 O         1 <0>         0.0070
  40174 WAT       -31.9320  -71.4160   -6.3330 O         1 <0>         0.0151
  40175 WAT       -31.9320  -71.4160   -6.0830 O         1 <0>         0.0195
  40176 WAT       -31.9320  -71.4160   -5.8330 O         1 <0>         0.0160
  40177 WAT       -31.9320  -71.4160   -5.5830 O         1 <0>         0.0087
  40178 WAT       -31.9320  -71.4160   -5.3330 O         1 <0>         0.0039
  40179 WAT       -31.9320  -71.4160   -5.0830 O         1 <0>         0.0023
  40180 WAT       -31.9320  -71.4160   -4.8330 O         1 <0>         0.0019
  40181 WAT       -31.9320  -71.4160   -4.5830 O         1 <0>         0.0015
  40182 WAT       -31.9320  -71.4160   -4.3330 O         1 <0>         0.0010
  40183 WAT       -31.9320  -71.4160   -4.0830 O         1 <0>         0.0006
  40184 WAT       -31.9320  -71.4160   -3.8330 O         1 <0>         0.0004
  40185 WAT       -31.9320  -71.4160   -3.5830 O         1 <0>         0.0003
  40186 WAT       -31.9320  -71.4160   -3.3330 O         1 <0>         0.0003
  40187 WAT       -31.9320  -71.4160   -3.0830 O         1 <0>         0.0002
  40188 WAT       -31.9320  -71.4160   -2.8330 O         1 <0>         0.0001
  40189 WAT       -31.9320  -71.4160   -2.5830 O         1 <0>         0.0000
  40190 WAT       -31.9320  -71.4160   -2.3330 O         1 <0>         0.0000
  40191 WAT       -31.9320  -71.4160   -2.0830 O         1 <0>         0.0000
  40192 WAT       -31.9320  -71.4160   -1.8330 O         1 <0>         0.0000
  40193 WAT       -31.9320  -71.4160   -1.5830 O         1 <0>         0.0000
  40194 WAT       -31.9320  -71.4160   -1.3330 O         1 <0>         0.0000
  40195 WAT       -31.9320  -71.4160   -1.0830 O         1 <0>         0.0000
  40196 WAT       -31.9320  -71.4160   -0.8330 O         1 <0>         0.0000
  40197 WAT       -31.9320  -71.4160   -0.5830 O         1 <0>         0.0000
  40198 WAT       -31.9320  -71.4160   -0.3330 O         1 <0>         0.0000
  40199 WAT       -31.9320  -71.4160   -0.0830 O         1 <0>         0.0000
  40200 WAT       -31.9320  -71.1660   -9.8330 O         1 <0>         0.0000
  40201 WAT       -31.9320  -71.1660   -9.5830 O         1 <0>         0.0000
  40202 WAT       -31.9320  -71.1660   -9.3330 O         1 <0>         0.0000
  40203 WAT       -31.9320  -71.1660   -9.0830 O         1 <0>         0.0000
  40204 WAT       -31.9320  -71.1660   -8.8330 O         1 <0>         0.0000
  40205 WAT       -31.9320  -71.1660   -8.5830 O         1 <0>         0.0000
  40206 WAT       -31.9320  -71.1660   -8.3330 O         1 <0>         0.0001
  40207 WAT       -31.9320  -71.1660   -8.0830 O         1 <0>         0.0002
  40208 WAT       -31.9320  -71.1660   -7.8330 O         1 <0>         0.0003
  40209 WAT       -31.9320  -71.1660   -7.5830 O         1 <0>         0.0003
  40210 WAT       -31.9320  -71.1660   -7.3330 O         1 <0>         0.0004
  40211 WAT       -31.9320  -71.1660   -7.0830 O         1 <0>         0.0008
  40212 WAT       -31.9320  -71.1660   -6.8330 O         1 <0>         0.0048
  40213 WAT       -31.9320  -71.1660   -6.5830 O         1 <0>         0.0169
  40214 WAT       -31.9320  -71.1660   -6.3330 O         1 <0>         0.0330
  40215 WAT       -31.9320  -71.1660   -6.0830 O         1 <0>         0.0398
  40216 WAT       -31.9320  -71.1660   -5.8330 O         1 <0>         0.0303
  40217 WAT       -31.9320  -71.1660   -5.5830 O         1 <0>         0.0147
  40218 WAT       -31.9320  -71.1660   -5.3330 O         1 <0>         0.0047
  40219 WAT       -31.9320  -71.1660   -5.0830 O         1 <0>         0.0014
  40220 WAT       -31.9320  -71.1660   -4.8330 O         1 <0>         0.0007
  40221 WAT       -31.9320  -71.1660   -4.5830 O         1 <0>         0.0004
  40222 WAT       -31.9320  -71.1660   -4.3330 O         1 <0>         0.0002
  40223 WAT       -31.9320  -71.1660   -4.0830 O         1 <0>         0.0001
  40224 WAT       -31.9320  -71.1660   -3.8330 O         1 <0>         0.0001
  40225 WAT       -31.9320  -71.1660   -3.5830 O         1 <0>         0.0001
  40226 WAT       -31.9320  -71.1660   -3.3330 O         1 <0>         0.0001
  40227 WAT       -31.9320  -71.1660   -3.0830 O         1 <0>         0.0001
  40228 WAT       -31.9320  -71.1660   -2.8330 O         1 <0>         0.0000
  40229 WAT       -31.9320  -71.1660   -2.5830 O         1 <0>         0.0000
  40230 WAT       -31.9320  -71.1660   -2.3330 O         1 <0>         0.0000
  40231 WAT       -31.9320  -71.1660   -2.0830 O         1 <0>         0.0000
  40232 WAT       -31.9320  -71.1660   -1.8330 O         1 <0>         0.0000
  40233 WAT       -31.9320  -71.1660   -1.5830 O         1 <0>         0.0000
  40234 WAT       -31.9320  -71.1660   -1.3330 O         1 <0>         0.0000
  40235 WAT       -31.9320  -71.1660   -1.0830 O         1 <0>         0.0000
  40236 WAT       -31.9320  -71.1660   -0.8330 O         1 <0>         0.0000
  40237 WAT       -31.9320  -71.1660   -0.5830 O         1 <0>         0.0000
  40238 WAT       -31.9320  -71.1660   -0.3330 O         1 <0>         0.0000
  40239 WAT       -31.9320  -71.1660   -0.0830 O         1 <0>         0.0000
  40240 WAT       -31.9320  -70.9160   -9.8330 O         1 <0>         0.0000
  40241 WAT       -31.9320  -70.9160   -9.5830 O         1 <0>         0.0000
  40242 WAT       -31.9320  -70.9160   -9.3330 O         1 <0>         0.0000
  40243 WAT       -31.9320  -70.9160   -9.0830 O         1 <0>         0.0000
  40244 WAT       -31.9320  -70.9160   -8.8330 O         1 <0>         0.0000
  40245 WAT       -31.9320  -70.9160   -8.5830 O         1 <0>         0.0001
  40246 WAT       -31.9320  -70.9160   -8.3330 O         1 <0>         0.0001
  40247 WAT       -31.9320  -70.9160   -8.0830 O         1 <0>         0.0002
  40248 WAT       -31.9320  -70.9160   -7.8330 O         1 <0>         0.0003
  40249 WAT       -31.9320  -70.9160   -7.5830 O         1 <0>         0.0005
  40250 WAT       -31.9320  -70.9160   -7.3330 O         1 <0>         0.0006
  40251 WAT       -31.9320  -70.9160   -7.0830 O         1 <0>         0.0017
  40252 WAT       -31.9320  -70.9160   -6.8330 O         1 <0>         0.0092
  40253 WAT       -31.9320  -70.9160   -6.5830 O         1 <0>         0.0284
  40254 WAT       -31.9320  -70.9160   -6.3330 O         1 <0>         0.0516
  40255 WAT       -31.9320  -70.9160   -6.0830 O         1 <0>         0.0587
  40256 WAT       -31.9320  -70.9160   -5.8330 O         1 <0>         0.0421
  40257 WAT       -31.9320  -70.9160   -5.5830 O         1 <0>         0.0189
  40258 WAT       -31.9320  -70.9160   -5.3330 O         1 <0>         0.0051
  40259 WAT       -31.9320  -70.9160   -5.0830 O         1 <0>         0.0009
  40260 WAT       -31.9320  -70.9160   -4.8330 O         1 <0>         0.0002
  40261 WAT       -31.9320  -70.9160   -4.5830 O         1 <0>         0.0001
  40262 WAT       -31.9320  -70.9160   -4.3330 O         1 <0>         0.0000
  40263 WAT       -31.9320  -70.9160   -4.0830 O         1 <0>         0.0000
  40264 WAT       -31.9320  -70.9160   -3.8330 O         1 <0>         0.0000
  40265 WAT       -31.9320  -70.9160   -3.5830 O         1 <0>         0.0000
  40266 WAT       -31.9320  -70.9160   -3.3330 O         1 <0>         0.0000
  40267 WAT       -31.9320  -70.9160   -3.0830 O         1 <0>         0.0000
  40268 WAT       -31.9320  -70.9160   -2.8330 O         1 <0>         0.0000
  40269 WAT       -31.9320  -70.9160   -2.5830 O         1 <0>         0.0000
  40270 WAT       -31.9320  -70.9160   -2.3330 O         1 <0>         0.0000
  40271 WAT       -31.9320  -70.9160   -2.0830 O         1 <0>         0.0000
  40272 WAT       -31.9320  -70.9160   -1.8330 O         1 <0>         0.0000
  40273 WAT       -31.9320  -70.9160   -1.5830 O         1 <0>         0.0000
  40274 WAT       -31.9320  -70.9160   -1.3330 O         1 <0>         0.0000
  40275 WAT       -31.9320  -70.9160   -1.0830 O         1 <0>         0.0000
  40276 WAT       -31.9320  -70.9160   -0.8330 O         1 <0>         0.0000
  40277 WAT       -31.9320  -70.9160   -0.5830 O         1 <0>         0.0000
  40278 WAT       -31.9320  -70.9160   -0.3330 O         1 <0>         0.0000
  40279 WAT       -31.9320  -70.9160   -0.0830 O         1 <0>         0.0000
  40280 WAT       -31.9320  -70.6660   -9.8330 O         1 <0>         0.0000
  40281 WAT       -31.9320  -70.6660   -9.5830 O         1 <0>         0.0000
  40282 WAT       -31.9320  -70.6660   -9.3330 O         1 <0>         0.0000
  40283 WAT       -31.9320  -70.6660   -9.0830 O         1 <0>         0.0000
  40284 WAT       -31.9320  -70.6660   -8.8330 O         1 <0>         0.0000
  40285 WAT       -31.9320  -70.6660   -8.5830 O         1 <0>         0.0000
  40286 WAT       -31.9320  -70.6660   -8.3330 O         1 <0>         0.0001
  40287 WAT       -31.9320  -70.6660   -8.0830 O         1 <0>         0.0002
  40288 WAT       -31.9320  -70.6660   -7.8330 O         1 <0>         0.0003
  40289 WAT       -31.9320  -70.6660   -7.5830 O         1 <0>         0.0006
  40290 WAT       -31.9320  -70.6660   -7.3330 O         1 <0>         0.0008
  40291 WAT       -31.9320  -70.6660   -7.0830 O         1 <0>         0.0025
  40292 WAT       -31.9320  -70.6660   -6.8330 O         1 <0>         0.0123
  40293 WAT       -31.9320  -70.6660   -6.5830 O         1 <0>         0.0350
  40294 WAT       -31.9320  -70.6660   -6.3330 O         1 <0>         0.0595
  40295 WAT       -31.9320  -70.6660   -6.0830 O         1 <0>         0.0637
  40296 WAT       -31.9320  -70.6660   -5.8330 O         1 <0>         0.0430
  40297 WAT       -31.9320  -70.6660   -5.5830 O         1 <0>         0.0179
  40298 WAT       -31.9320  -70.6660   -5.3330 O         1 <0>         0.0043
  40299 WAT       -31.9320  -70.6660   -5.0830 O         1 <0>         0.0005
  40300 WAT       -31.9320  -70.6660   -4.8330 O         1 <0>         0.0001
  40301 WAT       -31.9320  -70.6660   -4.5830 O         1 <0>         0.0000
  40302 WAT       -31.9320  -70.6660   -4.3330 O         1 <0>         0.0000
  40303 WAT       -31.9320  -70.6660   -4.0830 O         1 <0>         0.0000
  40304 WAT       -31.9320  -70.6660   -3.8330 O         1 <0>         0.0000
  40305 WAT       -31.9320  -70.6660   -3.5830 O         1 <0>         0.0000
  40306 WAT       -31.9320  -70.6660   -3.3330 O         1 <0>         0.0000
  40307 WAT       -31.9320  -70.6660   -3.0830 O         1 <0>         0.0000
  40308 WAT       -31.9320  -70.6660   -2.8330 O         1 <0>         0.0000
  40309 WAT       -31.9320  -70.6660   -2.5830 O         1 <0>         0.0000
  40310 WAT       -31.9320  -70.6660   -2.3330 O         1 <0>         0.0000
  40311 WAT       -31.9320  -70.6660   -2.0830 O         1 <0>         0.0000
  40312 WAT       -31.9320  -70.6660   -1.8330 O         1 <0>         0.0000
  40313 WAT       -31.9320  -70.6660   -1.5830 O         1 <0>         0.0000
  40314 WAT       -31.9320  -70.6660   -1.3330 O         1 <0>         0.0000
  40315 WAT       -31.9320  -70.6660   -1.0830 O         1 <0>         0.0000
  40316 WAT       -31.9320  -70.6660   -0.8330 O         1 <0>         0.0000
  40317 WAT       -31.9320  -70.6660   -0.5830 O         1 <0>         0.0000
  40318 WAT       -31.9320  -70.6660   -0.3330 O         1 <0>         0.0000
  40319 WAT       -31.9320  -70.6660   -0.0830 O         1 <0>         0.0000
  40320 WAT       -31.9320  -70.4160   -9.8330 O         1 <0>         0.0000
  40321 WAT       -31.9320  -70.4160   -9.5830 O         1 <0>         0.0000
  40322 WAT       -31.9320  -70.4160   -9.3330 O         1 <0>         0.0000
  40323 WAT       -31.9320  -70.4160   -9.0830 O         1 <0>         0.0000
  40324 WAT       -31.9320  -70.4160   -8.8330 O         1 <0>         0.0000
  40325 WAT       -31.9320  -70.4160   -8.5830 O         1 <0>         0.0000
  40326 WAT       -31.9320  -70.4160   -8.3330 O         1 <0>         0.0001
  40327 WAT       -31.9320  -70.4160   -8.0830 O         1 <0>         0.0002
  40328 WAT       -31.9320  -70.4160   -7.8330 O         1 <0>         0.0003
  40329 WAT       -31.9320  -70.4160   -7.5830 O         1 <0>         0.0006
  40330 WAT       -31.9320  -70.4160   -7.3330 O         1 <0>         0.0008
  40331 WAT       -31.9320  -70.4160   -7.0830 O         1 <0>         0.0027
  40332 WAT       -31.9320  -70.4160   -6.8330 O         1 <0>         0.0122
  40333 WAT       -31.9320  -70.4160   -6.5830 O         1 <0>         0.0321
  40334 WAT       -31.9320  -70.4160   -6.3330 O         1 <0>         0.0512
  40335 WAT       -31.9320  -70.4160   -6.0830 O         1 <0>         0.0514
  40336 WAT       -31.9320  -70.4160   -5.8330 O         1 <0>         0.0324
  40337 WAT       -31.9320  -70.4160   -5.5830 O         1 <0>         0.0123
  40338 WAT       -31.9320  -70.4160   -5.3330 O         1 <0>         0.0025
  40339 WAT       -31.9320  -70.4160   -5.0830 O         1 <0>         0.0002
  40340 WAT       -31.9320  -70.4160   -4.8330 O         1 <0>         0.0000
  40341 WAT       -31.9320  -70.4160   -4.5830 O         1 <0>         0.0000
  40342 WAT       -31.9320  -70.4160   -4.3330 O         1 <0>         0.0000
  40343 WAT       -31.9320  -70.4160   -4.0830 O         1 <0>         0.0000
  40344 WAT       -31.9320  -70.4160   -3.8330 O         1 <0>         0.0000
  40345 WAT       -31.9320  -70.4160   -3.5830 O         1 <0>         0.0000
  40346 WAT       -31.9320  -70.4160   -3.3330 O         1 <0>         0.0000
  40347 WAT       -31.9320  -70.4160   -3.0830 O         1 <0>         0.0000
  40348 WAT       -31.9320  -70.4160   -2.8330 O         1 <0>         0.0000
  40349 WAT       -31.9320  -70.4160   -2.5830 O         1 <0>         0.0000
  40350 WAT       -31.9320  -70.4160   -2.3330 O         1 <0>         0.0000
  40351 WAT       -31.9320  -70.4160   -2.0830 O         1 <0>         0.0000
  40352 WAT       -31.9320  -70.4160   -1.8330 O         1 <0>         0.0000
  40353 WAT       -31.9320  -70.4160   -1.5830 O         1 <0>         0.0000
  40354 WAT       -31.9320  -70.4160   -1.3330 O         1 <0>         0.0000
  40355 WAT       -31.9320  -70.4160   -1.0830 O         1 <0>         0.0000
  40356 WAT       -31.9320  -70.4160   -0.8330 O         1 <0>         0.0000
  40357 WAT       -31.9320  -70.4160   -0.5830 O         1 <0>         0.0000
  40358 WAT       -31.9320  -70.4160   -0.3330 O         1 <0>         0.0000
  40359 WAT       -31.9320  -70.4160   -0.0830 O         1 <0>         0.0000
  40360 WAT       -31.9320  -70.1660   -9.8330 O         1 <0>         0.0000
  40361 WAT       -31.9320  -70.1660   -9.5830 O         1 <0>         0.0000
  40362 WAT       -31.9320  -70.1660   -9.3330 O         1 <0>         0.0000
  40363 WAT       -31.9320  -70.1660   -9.0830 O         1 <0>         0.0000
  40364 WAT       -31.9320  -70.1660   -8.8330 O         1 <0>         0.0000
  40365 WAT       -31.9320  -70.1660   -8.5830 O         1 <0>         0.0001
  40366 WAT       -31.9320  -70.1660   -8.3330 O         1 <0>         0.0001
  40367 WAT       -31.9320  -70.1660   -8.0830 O         1 <0>         0.0002
  40368 WAT       -31.9320  -70.1660   -7.8330 O         1 <0>         0.0003
  40369 WAT       -31.9320  -70.1660   -7.5830 O         1 <0>         0.0004
  40370 WAT       -31.9320  -70.1660   -7.3330 O         1 <0>         0.0007
  40371 WAT       -31.9320  -70.1660   -7.0830 O         1 <0>         0.0021
  40372 WAT       -31.9320  -70.1660   -6.8330 O         1 <0>         0.0088
  40373 WAT       -31.9320  -70.1660   -6.5830 O         1 <0>         0.0221
  40374 WAT       -31.9320  -70.1660   -6.3330 O         1 <0>         0.0332
  40375 WAT       -31.9320  -70.1660   -6.0830 O         1 <0>         0.0312
  40376 WAT       -31.9320  -70.1660   -5.8330 O         1 <0>         0.0181
  40377 WAT       -31.9320  -70.1660   -5.5830 O         1 <0>         0.0061
  40378 WAT       -31.9320  -70.1660   -5.3330 O         1 <0>         0.0010
  40379 WAT       -31.9320  -70.1660   -5.0830 O         1 <0>         0.0001
  40380 WAT       -31.9320  -70.1660   -4.8330 O         1 <0>         0.0000
  40381 WAT       -31.9320  -70.1660   -4.5830 O         1 <0>         0.0000
  40382 WAT       -31.9320  -70.1660   -4.3330 O         1 <0>         0.0000
  40383 WAT       -31.9320  -70.1660   -4.0830 O         1 <0>         0.0000
  40384 WAT       -31.9320  -70.1660   -3.8330 O         1 <0>         0.0000
  40385 WAT       -31.9320  -70.1660   -3.5830 O         1 <0>         0.0000
  40386 WAT       -31.9320  -70.1660   -3.3330 O         1 <0>         0.0000
  40387 WAT       -31.9320  -70.1660   -3.0830 O         1 <0>         0.0000
  40388 WAT       -31.9320  -70.1660   -2.8330 O         1 <0>         0.0000
  40389 WAT       -31.9320  -70.1660   -2.5830 O         1 <0>         0.0000
  40390 WAT       -31.9320  -70.1660   -2.3330 O         1 <0>         0.0000
  40391 WAT       -31.9320  -70.1660   -2.0830 O         1 <0>         0.0000
  40392 WAT       -31.9320  -70.1660   -1.8330 O         1 <0>         0.0000
  40393 WAT       -31.9320  -70.1660   -1.5830 O         1 <0>         0.0000
  40394 WAT       -31.9320  -70.1660   -1.3330 O         1 <0>         0.0000
  40395 WAT       -31.9320  -70.1660   -1.0830 O         1 <0>         0.0000
  40396 WAT       -31.9320  -70.1660   -0.8330 O         1 <0>         0.0000
  40397 WAT       -31.9320  -70.1660   -0.5830 O         1 <0>         0.0000
  40398 WAT       -31.9320  -70.1660   -0.3330 O         1 <0>         0.0000
  40399 WAT       -31.9320  -70.1660   -0.0830 O         1 <0>         0.0000
  40400 WAT       -31.9320  -69.9160   -9.8330 O         1 <0>         0.0000
  40401 WAT       -31.9320  -69.9160   -9.5830 O         1 <0>         0.0000
  40402 WAT       -31.9320  -69.9160   -9.3330 O         1 <0>         0.0000
  40403 WAT       -31.9320  -69.9160   -9.0830 O         1 <0>         0.0000
  40404 WAT       -31.9320  -69.9160   -8.8330 O         1 <0>         0.0001
  40405 WAT       -31.9320  -69.9160   -8.5830 O         1 <0>         0.0001
  40406 WAT       -31.9320  -69.9160   -8.3330 O         1 <0>         0.0002
  40407 WAT       -31.9320  -69.9160   -8.0830 O         1 <0>         0.0002
  40408 WAT       -31.9320  -69.9160   -7.8330 O         1 <0>         0.0002
  40409 WAT       -31.9320  -69.9160   -7.5830 O         1 <0>         0.0002
  40410 WAT       -31.9320  -69.9160   -7.3330 O         1 <0>         0.0004
  40411 WAT       -31.9320  -69.9160   -7.0830 O         1 <0>         0.0013
  40412 WAT       -31.9320  -69.9160   -6.8330 O         1 <0>         0.0048
  40413 WAT       -31.9320  -69.9160   -6.5830 O         1 <0>         0.0115
  40414 WAT       -31.9320  -69.9160   -6.3330 O         1 <0>         0.0165
  40415 WAT       -31.9320  -69.9160   -6.0830 O         1 <0>         0.0145
  40416 WAT       -31.9320  -69.9160   -5.8330 O         1 <0>         0.0078
  40417 WAT       -31.9320  -69.9160   -5.5830 O         1 <0>         0.0023
  40418 WAT       -31.9320  -69.9160   -5.3330 O         1 <0>         0.0004
  40419 WAT       -31.9320  -69.9160   -5.0830 O         1 <0>         0.0000
  40420 WAT       -31.9320  -69.9160   -4.8330 O         1 <0>         0.0000
  40421 WAT       -31.9320  -69.9160   -4.5830 O         1 <0>         0.0000
  40422 WAT       -31.9320  -69.9160   -4.3330 O         1 <0>         0.0000
  40423 WAT       -31.9320  -69.9160   -4.0830 O         1 <0>         0.0000
  40424 WAT       -31.9320  -69.9160   -3.8330 O         1 <0>         0.0000
  40425 WAT       -31.9320  -69.9160   -3.5830 O         1 <0>         0.0000
  40426 WAT       -31.9320  -69.9160   -3.3330 O         1 <0>         0.0000
  40427 WAT       -31.9320  -69.9160   -3.0830 O         1 <0>         0.0000
  40428 WAT       -31.9320  -69.9160   -2.8330 O         1 <0>         0.0000
  40429 WAT       -31.9320  -69.9160   -2.5830 O         1 <0>         0.0000
  40430 WAT       -31.9320  -69.9160   -2.3330 O         1 <0>         0.0000
  40431 WAT       -31.9320  -69.9160   -2.0830 O         1 <0>         0.0000
  40432 WAT       -31.9320  -69.9160   -1.8330 O         1 <0>         0.0000
  40433 WAT       -31.9320  -69.9160   -1.5830 O         1 <0>         0.0000
  40434 WAT       -31.9320  -69.9160   -1.3330 O         1 <0>         0.0000
  40435 WAT       -31.9320  -69.9160   -1.0830 O         1 <0>         0.0000
  40436 WAT       -31.9320  -69.9160   -0.8330 O         1 <0>         0.0000
  40437 WAT       -31.9320  -69.9160   -0.5830 O         1 <0>         0.0000
  40438 WAT       -31.9320  -69.9160   -0.3330 O         1 <0>         0.0000
  40439 WAT       -31.9320  -69.9160   -0.0830 O         1 <0>         0.0000
  40440 WAT       -31.9320  -69.6660   -9.8330 O         1 <0>         0.0000
  40441 WAT       -31.9320  -69.6660   -9.5830 O         1 <0>         0.0000
  40442 WAT       -31.9320  -69.6660   -9.3330 O         1 <0>         0.0000
  40443 WAT       -31.9320  -69.6660   -9.0830 O         1 <0>         0.0000
  40444 WAT       -31.9320  -69.6660   -8.8330 O         1 <0>         0.0001
  40445 WAT       -31.9320  -69.6660   -8.5830 O         1 <0>         0.0002
  40446 WAT       -31.9320  -69.6660   -8.3330 O         1 <0>         0.0002
  40447 WAT       -31.9320  -69.6660   -8.0830 O         1 <0>         0.0002
  40448 WAT       -31.9320  -69.6660   -7.8330 O         1 <0>         0.0001
  40449 WAT       -31.9320  -69.6660   -7.5830 O         1 <0>         0.0002
  40450 WAT       -31.9320  -69.6660   -7.3330 O         1 <0>         0.0004
  40451 WAT       -31.9320  -69.6660   -7.0830 O         1 <0>         0.0009
  40452 WAT       -31.9320  -69.6660   -6.8330 O         1 <0>         0.0023
  40453 WAT       -31.9320  -69.6660   -6.5830 O         1 <0>         0.0049
  40454 WAT       -31.9320  -69.6660   -6.3330 O         1 <0>         0.0066
  40455 WAT       -31.9320  -69.6660   -6.0830 O         1 <0>         0.0057
  40456 WAT       -31.9320  -69.6660   -5.8330 O         1 <0>         0.0030
  40457 WAT       -31.9320  -69.6660   -5.5830 O         1 <0>         0.0010
  40458 WAT       -31.9320  -69.6660   -5.3330 O         1 <0>         0.0002
  40459 WAT       -31.9320  -69.6660   -5.0830 O         1 <0>         0.0000
  40460 WAT       -31.9320  -69.6660   -4.8330 O         1 <0>         0.0000
  40461 WAT       -31.9320  -69.6660   -4.5830 O         1 <0>         0.0000
  40462 WAT       -31.9320  -69.6660   -4.3330 O         1 <0>         0.0000
  40463 WAT       -31.9320  -69.6660   -4.0830 O         1 <0>         0.0000
  40464 WAT       -31.9320  -69.6660   -3.8330 O         1 <0>         0.0000
  40465 WAT       -31.9320  -69.6660   -3.5830 O         1 <0>         0.0000
  40466 WAT       -31.9320  -69.6660   -3.3330 O         1 <0>         0.0000
  40467 WAT       -31.9320  -69.6660   -3.0830 O         1 <0>         0.0000
  40468 WAT       -31.9320  -69.6660   -2.8330 O         1 <0>         0.0000
  40469 WAT       -31.9320  -69.6660   -2.5830 O         1 <0>         0.0000
  40470 WAT       -31.9320  -69.6660   -2.3330 O         1 <0>         0.0000
  40471 WAT       -31.9320  -69.6660   -2.0830 O         1 <0>         0.0000
  40472 WAT       -31.9320  -69.6660   -1.8330 O         1 <0>         0.0000
  40473 WAT       -31.9320  -69.6660   -1.5830 O         1 <0>         0.0000
  40474 WAT       -31.9320  -69.6660   -1.3330 O         1 <0>         0.0000
  40475 WAT       -31.9320  -69.6660   -1.0830 O         1 <0>         0.0000
  40476 WAT       -31.9320  -69.6660   -0.8330 O         1 <0>         0.0000
  40477 WAT       -31.9320  -69.6660   -0.5830 O         1 <0>         0.0000
  40478 WAT       -31.9320  -69.6660   -0.3330 O         1 <0>         0.0000
  40479 WAT       -31.9320  -69.6660   -0.0830 O         1 <0>         0.0000
  40480 WAT       -31.9320  -69.4160   -9.8330 O         1 <0>         0.0000
  40481 WAT       -31.9320  -69.4160   -9.5830 O         1 <0>         0.0000
  40482 WAT       -31.9320  -69.4160   -9.3330 O         1 <0>         0.0000
  40483 WAT       -31.9320  -69.4160   -9.0830 O         1 <0>         0.0000
  40484 WAT       -31.9320  -69.4160   -8.8330 O         1 <0>         0.0001
  40485 WAT       -31.9320  -69.4160   -8.5830 O         1 <0>         0.0002
  40486 WAT       -31.9320  -69.4160   -8.3330 O         1 <0>         0.0002
  40487 WAT       -31.9320  -69.4160   -8.0830 O         1 <0>         0.0002
  40488 WAT       -31.9320  -69.4160   -7.8330 O         1 <0>         0.0002
  40489 WAT       -31.9320  -69.4160   -7.5830 O         1 <0>         0.0006
  40490 WAT       -31.9320  -69.4160   -7.3330 O         1 <0>         0.0011
  40491 WAT       -31.9320  -69.4160   -7.0830 O         1 <0>         0.0014
  40492 WAT       -31.9320  -69.4160   -6.8330 O         1 <0>         0.0018
  40493 WAT       -31.9320  -69.4160   -6.5830 O         1 <0>         0.0024
  40494 WAT       -31.9320  -69.4160   -6.3330 O         1 <0>         0.0029
  40495 WAT       -31.9320  -69.4160   -6.0830 O         1 <0>         0.0025
  40496 WAT       -31.9320  -69.4160   -5.8330 O         1 <0>         0.0015
  40497 WAT       -31.9320  -69.4160   -5.5830 O         1 <0>         0.0006
  40498 WAT       -31.9320  -69.4160   -5.3330 O         1 <0>         0.0002
  40499 WAT       -31.9320  -69.4160   -5.0830 O         1 <0>         0.0000
  40500 WAT       -31.9320  -69.4160   -4.8330 O         1 <0>         0.0000
  40501 WAT       -31.9320  -69.4160   -4.5830 O         1 <0>         0.0000
  40502 WAT       -31.9320  -69.4160   -4.3330 O         1 <0>         0.0000
  40503 WAT       -31.9320  -69.4160   -4.0830 O         1 <0>         0.0000
  40504 WAT       -31.9320  -69.4160   -3.8330 O         1 <0>         0.0000
  40505 WAT       -31.9320  -69.4160   -3.5830 O         1 <0>         0.0000
  40506 WAT       -31.9320  -69.4160   -3.3330 O         1 <0>         0.0000
  40507 WAT       -31.9320  -69.4160   -3.0830 O         1 <0>         0.0000
  40508 WAT       -31.9320  -69.4160   -2.8330 O         1 <0>         0.0000
  40509 WAT       -31.9320  -69.4160   -2.5830 O         1 <0>         0.0000
  40510 WAT       -31.9320  -69.4160   -2.3330 O         1 <0>         0.0000
  40511 WAT       -31.9320  -69.4160   -2.0830 O         1 <0>         0.0000
  40512 WAT       -31.9320  -69.4160   -1.8330 O         1 <0>         0.0000
  40513 WAT       -31.9320  -69.4160   -1.5830 O         1 <0>         0.0000
  40514 WAT       -31.9320  -69.4160   -1.3330 O         1 <0>         0.0000
  40515 WAT       -31.9320  -69.4160   -1.0830 O         1 <0>         0.0000
  40516 WAT       -31.9320  -69.4160   -0.8330 O         1 <0>         0.0000
  40517 WAT       -31.9320  -69.4160   -0.5830 O         1 <0>         0.0000
  40518 WAT       -31.9320  -69.4160   -0.3330 O         1 <0>         0.0000
  40519 WAT       -31.9320  -69.4160   -0.0830 O         1 <0>         0.0000
  40520 WAT       -31.9320  -69.1660   -9.8330 O         1 <0>         0.0000
  40521 WAT       -31.9320  -69.1660   -9.5830 O         1 <0>         0.0000
  40522 WAT       -31.9320  -69.1660   -9.3330 O         1 <0>         0.0000
  40523 WAT       -31.9320  -69.1660   -9.0830 O         1 <0>         0.0000
  40524 WAT       -31.9320  -69.1660   -8.8330 O         1 <0>         0.0001
  40525 WAT       -31.9320  -69.1660   -8.5830 O         1 <0>         0.0001
  40526 WAT       -31.9320  -69.1660   -8.3330 O         1 <0>         0.0001
  40527 WAT       -31.9320  -69.1660   -8.0830 O         1 <0>         0.0002
  40528 WAT       -31.9320  -69.1660   -7.8330 O         1 <0>         0.0004
  40529 WAT       -31.9320  -69.1660   -7.5830 O         1 <0>         0.0010
  40530 WAT       -31.9320  -69.1660   -7.3330 O         1 <0>         0.0019
  40531 WAT       -31.9320  -69.1660   -7.0830 O         1 <0>         0.0023
  40532 WAT       -31.9320  -69.1660   -6.8330 O         1 <0>         0.0021
  40533 WAT       -31.9320  -69.1660   -6.5830 O         1 <0>         0.0018
  40534 WAT       -31.9320  -69.1660   -6.3330 O         1 <0>         0.0017
  40535 WAT       -31.9320  -69.1660   -6.0830 O         1 <0>         0.0015
  40536 WAT       -31.9320  -69.1660   -5.8330 O         1 <0>         0.0010
  40537 WAT       -31.9320  -69.1660   -5.5830 O         1 <0>         0.0005
  40538 WAT       -31.9320  -69.1660   -5.3330 O         1 <0>         0.0002
  40539 WAT       -31.9320  -69.1660   -5.0830 O         1 <0>         0.0000
  40540 WAT       -31.9320  -69.1660   -4.8330 O         1 <0>         0.0000
  40541 WAT       -31.9320  -69.1660   -4.5830 O         1 <0>         0.0000
  40542 WAT       -31.9320  -69.1660   -4.3330 O         1 <0>         0.0000
  40543 WAT       -31.9320  -69.1660   -4.0830 O         1 <0>         0.0000
  40544 WAT       -31.9320  -69.1660   -3.8330 O         1 <0>         0.0000
  40545 WAT       -31.9320  -69.1660   -3.5830 O         1 <0>         0.0000
  40546 WAT       -31.9320  -69.1660   -3.3330 O         1 <0>         0.0000
  40547 WAT       -31.9320  -69.1660   -3.0830 O         1 <0>         0.0000
  40548 WAT       -31.9320  -69.1660   -2.8330 O         1 <0>         0.0000
  40549 WAT       -31.9320  -69.1660   -2.5830 O         1 <0>         0.0000
  40550 WAT       -31.9320  -69.1660   -2.3330 O         1 <0>         0.0000
  40551 WAT       -31.9320  -69.1660   -2.0830 O         1 <0>         0.0000
  40552 WAT       -31.9320  -69.1660   -1.8330 O         1 <0>         0.0000
  40553 WAT       -31.9320  -69.1660   -1.5830 O         1 <0>         0.0000
  40554 WAT       -31.9320  -69.1660   -1.3330 O         1 <0>         0.0000
  40555 WAT       -31.9320  -69.1660   -1.0830 O         1 <0>         0.0000
  40556 WAT       -31.9320  -69.1660   -0.8330 O         1 <0>         0.0000
  40557 WAT       -31.9320  -69.1660   -0.5830 O         1 <0>         0.0000
  40558 WAT       -31.9320  -69.1660   -0.3330 O         1 <0>         0.0000
  40559 WAT       -31.9320  -69.1660   -0.0830 O         1 <0>         0.0000
  40560 WAT       -31.9320  -68.9160   -9.8330 O         1 <0>         0.0000
  40561 WAT       -31.9320  -68.9160   -9.5830 O         1 <0>         0.0000
  40562 WAT       -31.9320  -68.9160   -9.3330 O         1 <0>         0.0000
  40563 WAT       -31.9320  -68.9160   -9.0830 O         1 <0>         0.0000
  40564 WAT       -31.9320  -68.9160   -8.8330 O         1 <0>         0.0000
  40565 WAT       -31.9320  -68.9160   -8.5830 O         1 <0>         0.0000
  40566 WAT       -31.9320  -68.9160   -8.3330 O         1 <0>         0.0001
  40567 WAT       -31.9320  -68.9160   -8.0830 O         1 <0>         0.0001
  40568 WAT       -31.9320  -68.9160   -7.8330 O         1 <0>         0.0004
  40569 WAT       -31.9320  -68.9160   -7.5830 O         1 <0>         0.0010
  40570 WAT       -31.9320  -68.9160   -7.3330 O         1 <0>         0.0019
  40571 WAT       -31.9320  -68.9160   -7.0830 O         1 <0>         0.0022
  40572 WAT       -31.9320  -68.9160   -6.8330 O         1 <0>         0.0019
  40573 WAT       -31.9320  -68.9160   -6.5830 O         1 <0>         0.0014
  40574 WAT       -31.9320  -68.9160   -6.3330 O         1 <0>         0.0011
  40575 WAT       -31.9320  -68.9160   -6.0830 O         1 <0>         0.0009
  40576 WAT       -31.9320  -68.9160   -5.8330 O         1 <0>         0.0007
  40577 WAT       -31.9320  -68.9160   -5.5830 O         1 <0>         0.0004
  40578 WAT       -31.9320  -68.9160   -5.3330 O         1 <0>         0.0001
  40579 WAT       -31.9320  -68.9160   -5.0830 O         1 <0>         0.0000
  40580 WAT       -31.9320  -68.9160   -4.8330 O         1 <0>         0.0000
  40581 WAT       -31.9320  -68.9160   -4.5830 O         1 <0>         0.0000
  40582 WAT       -31.9320  -68.9160   -4.3330 O         1 <0>         0.0000
  40583 WAT       -31.9320  -68.9160   -4.0830 O         1 <0>         0.0000
  40584 WAT       -31.9320  -68.9160   -3.8330 O         1 <0>         0.0000
  40585 WAT       -31.9320  -68.9160   -3.5830 O         1 <0>         0.0000
  40586 WAT       -31.9320  -68.9160   -3.3330 O         1 <0>         0.0000
  40587 WAT       -31.9320  -68.9160   -3.0830 O         1 <0>         0.0000
  40588 WAT       -31.9320  -68.9160   -2.8330 O         1 <0>         0.0000
  40589 WAT       -31.9320  -68.9160   -2.5830 O         1 <0>         0.0000
  40590 WAT       -31.9320  -68.9160   -2.3330 O         1 <0>         0.0000
  40591 WAT       -31.9320  -68.9160   -2.0830 O         1 <0>         0.0000
  40592 WAT       -31.9320  -68.9160   -1.8330 O         1 <0>         0.0000
  40593 WAT       -31.9320  -68.9160   -1.5830 O         1 <0>         0.0000
  40594 WAT       -31.9320  -68.9160   -1.3330 O         1 <0>         0.0000
  40595 WAT       -31.9320  -68.9160   -1.0830 O         1 <0>         0.0000
  40596 WAT       -31.9320  -68.9160   -0.8330 O         1 <0>         0.0000
  40597 WAT       -31.9320  -68.9160   -0.5830 O         1 <0>         0.0000
  40598 WAT       -31.9320  -68.9160   -0.3330 O         1 <0>         0.0000
  40599 WAT       -31.9320  -68.9160   -0.0830 O         1 <0>         0.0000
  40600 WAT       -31.6820  -77.4160   -9.8330 O         1 <0>         0.0000
  40601 WAT       -31.6820  -77.4160   -9.5830 O         1 <0>         0.0000
  40602 WAT       -31.6820  -77.4160   -9.3330 O         1 <0>         0.0000
  40603 WAT       -31.6820  -77.4160   -9.0830 O         1 <0>         0.0000
  40604 WAT       -31.6820  -77.4160   -8.8330 O         1 <0>         0.0000
  40605 WAT       -31.6820  -77.4160   -8.5830 O         1 <0>         0.0000
  40606 WAT       -31.6820  -77.4160   -8.3330 O         1 <0>         0.0000
  40607 WAT       -31.6820  -77.4160   -8.0830 O         1 <0>         0.0000
  40608 WAT       -31.6820  -77.4160   -7.8330 O         1 <0>         0.0000
  40609 WAT       -31.6820  -77.4160   -7.5830 O         1 <0>         0.0000
  40610 WAT       -31.6820  -77.4160   -7.3330 O         1 <0>         0.0000
  40611 WAT       -31.6820  -77.4160   -7.0830 O         1 <0>         0.0000
  40612 WAT       -31.6820  -77.4160   -6.8330 O         1 <0>         0.0000
  40613 WAT       -31.6820  -77.4160   -6.5830 O         1 <0>         0.0000
  40614 WAT       -31.6820  -77.4160   -6.3330 O         1 <0>         0.0000
  40615 WAT       -31.6820  -77.4160   -6.0830 O         1 <0>         0.0000
  40616 WAT       -31.6820  -77.4160   -5.8330 O         1 <0>         0.0000
  40617 WAT       -31.6820  -77.4160   -5.5830 O         1 <0>         0.0000
  40618 WAT       -31.6820  -77.4160   -5.3330 O         1 <0>         0.0000
  40619 WAT       -31.6820  -77.4160   -5.0830 O         1 <0>         0.0000
  40620 WAT       -31.6820  -77.4160   -4.8330 O         1 <0>         0.0000
  40621 WAT       -31.6820  -77.4160   -4.5830 O         1 <0>         0.0000
  40622 WAT       -31.6820  -77.4160   -4.3330 O         1 <0>         0.0000
  40623 WAT       -31.6820  -77.4160   -4.0830 O         1 <0>         0.0000
  40624 WAT       -31.6820  -77.4160   -3.8330 O         1 <0>         0.0000
  40625 WAT       -31.6820  -77.4160   -3.5830 O         1 <0>         0.0000
  40626 WAT       -31.6820  -77.4160   -3.3330 O         1 <0>         0.0000
  40627 WAT       -31.6820  -77.4160   -3.0830 O         1 <0>         0.0000
  40628 WAT       -31.6820  -77.4160   -2.8330 O         1 <0>         0.0000
  40629 WAT       -31.6820  -77.4160   -2.5830 O         1 <0>         0.0000
  40630 WAT       -31.6820  -77.4160   -2.3330 O         1 <0>         0.0000
  40631 WAT       -31.6820  -77.4160   -2.0830 O         1 <0>         0.0000
  40632 WAT       -31.6820  -77.4160   -1.8330 O         1 <0>         0.0000
  40633 WAT       -31.6820  -77.4160   -1.5830 O         1 <0>         0.0000
  40634 WAT       -31.6820  -77.4160   -1.3330 O         1 <0>         0.0000
  40635 WAT       -31.6820  -77.4160   -1.0830 O         1 <0>         0.0000
  40636 WAT       -31.6820  -77.4160   -0.8330 O         1 <0>         0.0000
  40637 WAT       -31.6820  -77.4160   -0.5830 O         1 <0>         0.0000
  40638 WAT       -31.6820  -77.4160   -0.3330 O         1 <0>         0.0000
  40639 WAT       -31.6820  -77.4160   -0.0830 O         1 <0>         0.0000
  40640 WAT       -31.6820  -77.1660   -9.8330 O         1 <0>         0.0000
  40641 WAT       -31.6820  -77.1660   -9.5830 O         1 <0>         0.0000
  40642 WAT       -31.6820  -77.1660   -9.3330 O         1 <0>         0.0000
  40643 WAT       -31.6820  -77.1660   -9.0830 O         1 <0>         0.0000
  40644 WAT       -31.6820  -77.1660   -8.8330 O         1 <0>         0.0000
  40645 WAT       -31.6820  -77.1660   -8.5830 O         1 <0>         0.0000
  40646 WAT       -31.6820  -77.1660   -8.3330 O         1 <0>         0.0000
  40647 WAT       -31.6820  -77.1660   -8.0830 O         1 <0>         0.0000
  40648 WAT       -31.6820  -77.1660   -7.8330 O         1 <0>         0.0000
  40649 WAT       -31.6820  -77.1660   -7.5830 O         1 <0>         0.0000
  40650 WAT       -31.6820  -77.1660   -7.3330 O         1 <0>         0.0000
  40651 WAT       -31.6820  -77.1660   -7.0830 O         1 <0>         0.0000
  40652 WAT       -31.6820  -77.1660   -6.8330 O         1 <0>         0.0000
  40653 WAT       -31.6820  -77.1660   -6.5830 O         1 <0>         0.0000
  40654 WAT       -31.6820  -77.1660   -6.3330 O         1 <0>         0.0000
  40655 WAT       -31.6820  -77.1660   -6.0830 O         1 <0>         0.0000
  40656 WAT       -31.6820  -77.1660   -5.8330 O         1 <0>         0.0000
  40657 WAT       -31.6820  -77.1660   -5.5830 O         1 <0>         0.0000
  40658 WAT       -31.6820  -77.1660   -5.3330 O         1 <0>         0.0000
  40659 WAT       -31.6820  -77.1660   -5.0830 O         1 <0>         0.0000
  40660 WAT       -31.6820  -77.1660   -4.8330 O         1 <0>         0.0000
  40661 WAT       -31.6820  -77.1660   -4.5830 O         1 <0>         0.0000
  40662 WAT       -31.6820  -77.1660   -4.3330 O         1 <0>         0.0000
  40663 WAT       -31.6820  -77.1660   -4.0830 O         1 <0>         0.0000
  40664 WAT       -31.6820  -77.1660   -3.8330 O         1 <0>         0.0000
  40665 WAT       -31.6820  -77.1660   -3.5830 O         1 <0>         0.0000
  40666 WAT       -31.6820  -77.1660   -3.3330 O         1 <0>         0.0000
  40667 WAT       -31.6820  -77.1660   -3.0830 O         1 <0>         0.0000
  40668 WAT       -31.6820  -77.1660   -2.8330 O         1 <0>         0.0000
  40669 WAT       -31.6820  -77.1660   -2.5830 O         1 <0>         0.0000
  40670 WAT       -31.6820  -77.1660   -2.3330 O         1 <0>         0.0000
  40671 WAT       -31.6820  -77.1660   -2.0830 O         1 <0>         0.0000
  40672 WAT       -31.6820  -77.1660   -1.8330 O         1 <0>         0.0000
  40673 WAT       -31.6820  -77.1660   -1.5830 O         1 <0>         0.0000
  40674 WAT       -31.6820  -77.1660   -1.3330 O         1 <0>         0.0000
  40675 WAT       -31.6820  -77.1660   -1.0830 O         1 <0>         0.0000
  40676 WAT       -31.6820  -77.1660   -0.8330 O         1 <0>         0.0000
  40677 WAT       -31.6820  -77.1660   -0.5830 O         1 <0>         0.0000
  40678 WAT       -31.6820  -77.1660   -0.3330 O         1 <0>         0.0000
  40679 WAT       -31.6820  -77.1660   -0.0830 O         1 <0>         0.0000
  40680 WAT       -31.6820  -76.9160   -9.8330 O         1 <0>         0.0000
  40681 WAT       -31.6820  -76.9160   -9.5830 O         1 <0>         0.0000
  40682 WAT       -31.6820  -76.9160   -9.3330 O         1 <0>         0.0000
  40683 WAT       -31.6820  -76.9160   -9.0830 O         1 <0>         0.0000
  40684 WAT       -31.6820  -76.9160   -8.8330 O         1 <0>         0.0000
  40685 WAT       -31.6820  -76.9160   -8.5830 O         1 <0>         0.0000
  40686 WAT       -31.6820  -76.9160   -8.3330 O         1 <0>         0.0000
  40687 WAT       -31.6820  -76.9160   -8.0830 O         1 <0>         0.0000
  40688 WAT       -31.6820  -76.9160   -7.8330 O         1 <0>         0.0000
  40689 WAT       -31.6820  -76.9160   -7.5830 O         1 <0>         0.0000
  40690 WAT       -31.6820  -76.9160   -7.3330 O         1 <0>         0.0000
  40691 WAT       -31.6820  -76.9160   -7.0830 O         1 <0>         0.0000
  40692 WAT       -31.6820  -76.9160   -6.8330 O         1 <0>         0.0000
  40693 WAT       -31.6820  -76.9160   -6.5830 O         1 <0>         0.0000
  40694 WAT       -31.6820  -76.9160   -6.3330 O         1 <0>         0.0000
  40695 WAT       -31.6820  -76.9160   -6.0830 O         1 <0>         0.0000
  40696 WAT       -31.6820  -76.9160   -5.8330 O         1 <0>         0.0000
  40697 WAT       -31.6820  -76.9160   -5.5830 O         1 <0>         0.0000
  40698 WAT       -31.6820  -76.9160   -5.3330 O         1 <0>         0.0000
  40699 WAT       -31.6820  -76.9160   -5.0830 O         1 <0>         0.0000
  40700 WAT       -31.6820  -76.9160   -4.8330 O         1 <0>         0.0000
  40701 WAT       -31.6820  -76.9160   -4.5830 O         1 <0>         0.0000
  40702 WAT       -31.6820  -76.9160   -4.3330 O         1 <0>         0.0000
  40703 WAT       -31.6820  -76.9160   -4.0830 O         1 <0>         0.0000
  40704 WAT       -31.6820  -76.9160   -3.8330 O         1 <0>         0.0000
  40705 WAT       -31.6820  -76.9160   -3.5830 O         1 <0>         0.0000
  40706 WAT       -31.6820  -76.9160   -3.3330 O         1 <0>         0.0000
  40707 WAT       -31.6820  -76.9160   -3.0830 O         1 <0>         0.0000
  40708 WAT       -31.6820  -76.9160   -2.8330 O         1 <0>         0.0000
  40709 WAT       -31.6820  -76.9160   -2.5830 O         1 <0>         0.0000
  40710 WAT       -31.6820  -76.9160   -2.3330 O         1 <0>         0.0000
  40711 WAT       -31.6820  -76.9160   -2.0830 O         1 <0>         0.0000
  40712 WAT       -31.6820  -76.9160   -1.8330 O         1 <0>         0.0000
  40713 WAT       -31.6820  -76.9160   -1.5830 O         1 <0>         0.0000
  40714 WAT       -31.6820  -76.9160   -1.3330 O         1 <0>         0.0000
  40715 WAT       -31.6820  -76.9160   -1.0830 O         1 <0>         0.0000
  40716 WAT       -31.6820  -76.9160   -0.8330 O         1 <0>         0.0000
  40717 WAT       -31.6820  -76.9160   -0.5830 O         1 <0>         0.0000
  40718 WAT       -31.6820  -76.9160   -0.3330 O         1 <0>         0.0000
  40719 WAT       -31.6820  -76.9160   -0.0830 O         1 <0>         0.0000
  40720 WAT       -31.6820  -76.6660   -9.8330 O         1 <0>         0.0000
  40721 WAT       -31.6820  -76.6660   -9.5830 O         1 <0>         0.0000
  40722 WAT       -31.6820  -76.6660   -9.3330 O         1 <0>         0.0000
  40723 WAT       -31.6820  -76.6660   -9.0830 O         1 <0>         0.0000
  40724 WAT       -31.6820  -76.6660   -8.8330 O         1 <0>         0.0000
  40725 WAT       -31.6820  -76.6660   -8.5830 O         1 <0>         0.0000
  40726 WAT       -31.6820  -76.6660   -8.3330 O         1 <0>         0.0000
  40727 WAT       -31.6820  -76.6660   -8.0830 O         1 <0>         0.0000
  40728 WAT       -31.6820  -76.6660   -7.8330 O         1 <0>         0.0000
  40729 WAT       -31.6820  -76.6660   -7.5830 O         1 <0>         0.0000
  40730 WAT       -31.6820  -76.6660   -7.3330 O         1 <0>         0.0000
  40731 WAT       -31.6820  -76.6660   -7.0830 O         1 <0>         0.0000
  40732 WAT       -31.6820  -76.6660   -6.8330 O         1 <0>         0.0000
  40733 WAT       -31.6820  -76.6660   -6.5830 O         1 <0>         0.0000
  40734 WAT       -31.6820  -76.6660   -6.3330 O         1 <0>         0.0000
  40735 WAT       -31.6820  -76.6660   -6.0830 O         1 <0>         0.0000
  40736 WAT       -31.6820  -76.6660   -5.8330 O         1 <0>         0.0000
  40737 WAT       -31.6820  -76.6660   -5.5830 O         1 <0>         0.0000
  40738 WAT       -31.6820  -76.6660   -5.3330 O         1 <0>         0.0000
  40739 WAT       -31.6820  -76.6660   -5.0830 O         1 <0>         0.0000
  40740 WAT       -31.6820  -76.6660   -4.8330 O         1 <0>         0.0000
  40741 WAT       -31.6820  -76.6660   -4.5830 O         1 <0>         0.0000
  40742 WAT       -31.6820  -76.6660   -4.3330 O         1 <0>         0.0000
  40743 WAT       -31.6820  -76.6660   -4.0830 O         1 <0>         0.0000
  40744 WAT       -31.6820  -76.6660   -3.8330 O         1 <0>         0.0000
  40745 WAT       -31.6820  -76.6660   -3.5830 O         1 <0>         0.0000
  40746 WAT       -31.6820  -76.6660   -3.3330 O         1 <0>         0.0000
  40747 WAT       -31.6820  -76.6660   -3.0830 O         1 <0>         0.0000
  40748 WAT       -31.6820  -76.6660   -2.8330 O         1 <0>         0.0000
  40749 WAT       -31.6820  -76.6660   -2.5830 O         1 <0>         0.0000
  40750 WAT       -31.6820  -76.6660   -2.3330 O         1 <0>         0.0000
  40751 WAT       -31.6820  -76.6660   -2.0830 O         1 <0>         0.0000
  40752 WAT       -31.6820  -76.6660   -1.8330 O         1 <0>         0.0000
  40753 WAT       -31.6820  -76.6660   -1.5830 O         1 <0>         0.0000
  40754 WAT       -31.6820  -76.6660   -1.3330 O         1 <0>         0.0000
  40755 WAT       -31.6820  -76.6660   -1.0830 O         1 <0>         0.0000
  40756 WAT       -31.6820  -76.6660   -0.8330 O         1 <0>         0.0000
  40757 WAT       -31.6820  -76.6660   -0.5830 O         1 <0>         0.0000
  40758 WAT       -31.6820  -76.6660   -0.3330 O         1 <0>         0.0000
  40759 WAT       -31.6820  -76.6660   -0.0830 O         1 <0>         0.0000
  40760 WAT       -31.6820  -76.4160   -9.8330 O         1 <0>         0.0000
  40761 WAT       -31.6820  -76.4160   -9.5830 O         1 <0>         0.0000
  40762 WAT       -31.6820  -76.4160   -9.3330 O         1 <0>         0.0000
  40763 WAT       -31.6820  -76.4160   -9.0830 O         1 <0>         0.0000
  40764 WAT       -31.6820  -76.4160   -8.8330 O         1 <0>         0.0000
  40765 WAT       -31.6820  -76.4160   -8.5830 O         1 <0>         0.0000
  40766 WAT       -31.6820  -76.4160   -8.3330 O         1 <0>         0.0000
  40767 WAT       -31.6820  -76.4160   -8.0830 O         1 <0>         0.0000
  40768 WAT       -31.6820  -76.4160   -7.8330 O         1 <0>         0.0000
  40769 WAT       -31.6820  -76.4160   -7.5830 O         1 <0>         0.0000
  40770 WAT       -31.6820  -76.4160   -7.3330 O         1 <0>         0.0000
  40771 WAT       -31.6820  -76.4160   -7.0830 O         1 <0>         0.0000
  40772 WAT       -31.6820  -76.4160   -6.8330 O         1 <0>         0.0000
  40773 WAT       -31.6820  -76.4160   -6.5830 O         1 <0>         0.0000
  40774 WAT       -31.6820  -76.4160   -6.3330 O         1 <0>         0.0000
  40775 WAT       -31.6820  -76.4160   -6.0830 O         1 <0>         0.0000
  40776 WAT       -31.6820  -76.4160   -5.8330 O         1 <0>         0.0000
  40777 WAT       -31.6820  -76.4160   -5.5830 O         1 <0>         0.0000
  40778 WAT       -31.6820  -76.4160   -5.3330 O         1 <0>         0.0000
  40779 WAT       -31.6820  -76.4160   -5.0830 O         1 <0>         0.0000
  40780 WAT       -31.6820  -76.4160   -4.8330 O         1 <0>         0.0000
  40781 WAT       -31.6820  -76.4160   -4.5830 O         1 <0>         0.0000
  40782 WAT       -31.6820  -76.4160   -4.3330 O         1 <0>         0.0000
  40783 WAT       -31.6820  -76.4160   -4.0830 O         1 <0>         0.0000
  40784 WAT       -31.6820  -76.4160   -3.8330 O         1 <0>         0.0000
  40785 WAT       -31.6820  -76.4160   -3.5830 O         1 <0>         0.0000
  40786 WAT       -31.6820  -76.4160   -3.3330 O         1 <0>         0.0000
  40787 WAT       -31.6820  -76.4160   -3.0830 O         1 <0>         0.0000
  40788 WAT       -31.6820  -76.4160   -2.8330 O         1 <0>         0.0000
  40789 WAT       -31.6820  -76.4160   -2.5830 O         1 <0>         0.0000
  40790 WAT       -31.6820  -76.4160   -2.3330 O         1 <0>         0.0000
  40791 WAT       -31.6820  -76.4160   -2.0830 O         1 <0>         0.0000
  40792 WAT       -31.6820  -76.4160   -1.8330 O         1 <0>         0.0000
  40793 WAT       -31.6820  -76.4160   -1.5830 O         1 <0>         0.0000
  40794 WAT       -31.6820  -76.4160   -1.3330 O         1 <0>         0.0000
  40795 WAT       -31.6820  -76.4160   -1.0830 O         1 <0>         0.0000
  40796 WAT       -31.6820  -76.4160   -0.8330 O         1 <0>         0.0000
  40797 WAT       -31.6820  -76.4160   -0.5830 O         1 <0>         0.0000
  40798 WAT       -31.6820  -76.4160   -0.3330 O         1 <0>         0.0000
  40799 WAT       -31.6820  -76.4160   -0.0830 O         1 <0>         0.0000
  40800 WAT       -31.6820  -76.1660   -9.8330 O         1 <0>         0.0000
  40801 WAT       -31.6820  -76.1660   -9.5830 O         1 <0>         0.0000
  40802 WAT       -31.6820  -76.1660   -9.3330 O         1 <0>         0.0000
  40803 WAT       -31.6820  -76.1660   -9.0830 O         1 <0>         0.0000
  40804 WAT       -31.6820  -76.1660   -8.8330 O         1 <0>         0.0000
  40805 WAT       -31.6820  -76.1660   -8.5830 O         1 <0>         0.0000
  40806 WAT       -31.6820  -76.1660   -8.3330 O         1 <0>         0.0000
  40807 WAT       -31.6820  -76.1660   -8.0830 O         1 <0>         0.0000
  40808 WAT       -31.6820  -76.1660   -7.8330 O         1 <0>         0.0000
  40809 WAT       -31.6820  -76.1660   -7.5830 O         1 <0>         0.0000
  40810 WAT       -31.6820  -76.1660   -7.3330 O         1 <0>         0.0000
  40811 WAT       -31.6820  -76.1660   -7.0830 O         1 <0>         0.0000
  40812 WAT       -31.6820  -76.1660   -6.8330 O         1 <0>         0.0000
  40813 WAT       -31.6820  -76.1660   -6.5830 O         1 <0>         0.0000
  40814 WAT       -31.6820  -76.1660   -6.3330 O         1 <0>         0.0000
  40815 WAT       -31.6820  -76.1660   -6.0830 O         1 <0>         0.0000
  40816 WAT       -31.6820  -76.1660   -5.8330 O         1 <0>         0.0000
  40817 WAT       -31.6820  -76.1660   -5.5830 O         1 <0>         0.0000
  40818 WAT       -31.6820  -76.1660   -5.3330 O         1 <0>         0.0000
  40819 WAT       -31.6820  -76.1660   -5.0830 O         1 <0>         0.0000
  40820 WAT       -31.6820  -76.1660   -4.8330 O         1 <0>         0.0000
  40821 WAT       -31.6820  -76.1660   -4.5830 O         1 <0>         0.0000
  40822 WAT       -31.6820  -76.1660   -4.3330 O         1 <0>         0.0000
  40823 WAT       -31.6820  -76.1660   -4.0830 O         1 <0>         0.0000
  40824 WAT       -31.6820  -76.1660   -3.8330 O         1 <0>         0.0000
  40825 WAT       -31.6820  -76.1660   -3.5830 O         1 <0>         0.0000
  40826 WAT       -31.6820  -76.1660   -3.3330 O         1 <0>         0.0000
  40827 WAT       -31.6820  -76.1660   -3.0830 O         1 <0>         0.0000
  40828 WAT       -31.6820  -76.1660   -2.8330 O         1 <0>         0.0000
  40829 WAT       -31.6820  -76.1660   -2.5830 O         1 <0>         0.0000
  40830 WAT       -31.6820  -76.1660   -2.3330 O         1 <0>         0.0000
  40831 WAT       -31.6820  -76.1660   -2.0830 O         1 <0>         0.0000
  40832 WAT       -31.6820  -76.1660   -1.8330 O         1 <0>         0.0000
  40833 WAT       -31.6820  -76.1660   -1.5830 O         1 <0>         0.0000
  40834 WAT       -31.6820  -76.1660   -1.3330 O         1 <0>         0.0000
  40835 WAT       -31.6820  -76.1660   -1.0830 O         1 <0>         0.0000
  40836 WAT       -31.6820  -76.1660   -0.8330 O         1 <0>         0.0000
  40837 WAT       -31.6820  -76.1660   -0.5830 O         1 <0>         0.0000
  40838 WAT       -31.6820  -76.1660   -0.3330 O         1 <0>         0.0000
  40839 WAT       -31.6820  -76.1660   -0.0830 O         1 <0>         0.0000
  40840 WAT       -31.6820  -75.9160   -9.8330 O         1 <0>         0.0000
  40841 WAT       -31.6820  -75.9160   -9.5830 O         1 <0>         0.0000
  40842 WAT       -31.6820  -75.9160   -9.3330 O         1 <0>         0.0000
  40843 WAT       -31.6820  -75.9160   -9.0830 O         1 <0>         0.0000
  40844 WAT       -31.6820  -75.9160   -8.8330 O         1 <0>         0.0000
  40845 WAT       -31.6820  -75.9160   -8.5830 O         1 <0>         0.0000
  40846 WAT       -31.6820  -75.9160   -8.3330 O         1 <0>         0.0000
  40847 WAT       -31.6820  -75.9160   -8.0830 O         1 <0>         0.0000
  40848 WAT       -31.6820  -75.9160   -7.8330 O         1 <0>         0.0000
  40849 WAT       -31.6820  -75.9160   -7.5830 O         1 <0>         0.0000
  40850 WAT       -31.6820  -75.9160   -7.3330 O         1 <0>         0.0000
  40851 WAT       -31.6820  -75.9160   -7.0830 O         1 <0>         0.0000
  40852 WAT       -31.6820  -75.9160   -6.8330 O         1 <0>         0.0000
  40853 WAT       -31.6820  -75.9160   -6.5830 O         1 <0>         0.0000
  40854 WAT       -31.6820  -75.9160   -6.3330 O         1 <0>         0.0000
  40855 WAT       -31.6820  -75.9160   -6.0830 O         1 <0>         0.0000
  40856 WAT       -31.6820  -75.9160   -5.8330 O         1 <0>         0.0000
  40857 WAT       -31.6820  -75.9160   -5.5830 O         1 <0>         0.0000
  40858 WAT       -31.6820  -75.9160   -5.3330 O         1 <0>         0.0000
  40859 WAT       -31.6820  -75.9160   -5.0830 O         1 <0>         0.0000
  40860 WAT       -31.6820  -75.9160   -4.8330 O         1 <0>         0.0000
  40861 WAT       -31.6820  -75.9160   -4.5830 O         1 <0>         0.0000
  40862 WAT       -31.6820  -75.9160   -4.3330 O         1 <0>         0.0000
  40863 WAT       -31.6820  -75.9160   -4.0830 O         1 <0>         0.0000
  40864 WAT       -31.6820  -75.9160   -3.8330 O         1 <0>         0.0000
  40865 WAT       -31.6820  -75.9160   -3.5830 O         1 <0>         0.0000
  40866 WAT       -31.6820  -75.9160   -3.3330 O         1 <0>         0.0000
  40867 WAT       -31.6820  -75.9160   -3.0830 O         1 <0>         0.0000
  40868 WAT       -31.6820  -75.9160   -2.8330 O         1 <0>         0.0000
  40869 WAT       -31.6820  -75.9160   -2.5830 O         1 <0>         0.0000
  40870 WAT       -31.6820  -75.9160   -2.3330 O         1 <0>         0.0000
  40871 WAT       -31.6820  -75.9160   -2.0830 O         1 <0>         0.0000
  40872 WAT       -31.6820  -75.9160   -1.8330 O         1 <0>         0.0000
  40873 WAT       -31.6820  -75.9160   -1.5830 O         1 <0>         0.0000
  40874 WAT       -31.6820  -75.9160   -1.3330 O         1 <0>         0.0000
  40875 WAT       -31.6820  -75.9160   -1.0830 O         1 <0>         0.0000
  40876 WAT       -31.6820  -75.9160   -0.8330 O         1 <0>         0.0000
  40877 WAT       -31.6820  -75.9160   -0.5830 O         1 <0>         0.0000
  40878 WAT       -31.6820  -75.9160   -0.3330 O         1 <0>         0.0000
  40879 WAT       -31.6820  -75.9160   -0.0830 O         1 <0>         0.0000
  40880 WAT       -31.6820  -75.6660   -9.8330 O         1 <0>         0.0000
  40881 WAT       -31.6820  -75.6660   -9.5830 O         1 <0>         0.0000
  40882 WAT       -31.6820  -75.6660   -9.3330 O         1 <0>         0.0000
  40883 WAT       -31.6820  -75.6660   -9.0830 O         1 <0>         0.0000
  40884 WAT       -31.6820  -75.6660   -8.8330 O         1 <0>         0.0000
  40885 WAT       -31.6820  -75.6660   -8.5830 O         1 <0>         0.0000
  40886 WAT       -31.6820  -75.6660   -8.3330 O         1 <0>         0.0000
  40887 WAT       -31.6820  -75.6660   -8.0830 O         1 <0>         0.0000
  40888 WAT       -31.6820  -75.6660   -7.8330 O         1 <0>         0.0000
  40889 WAT       -31.6820  -75.6660   -7.5830 O         1 <0>         0.0000
  40890 WAT       -31.6820  -75.6660   -7.3330 O         1 <0>         0.0000
  40891 WAT       -31.6820  -75.6660   -7.0830 O         1 <0>         0.0000
  40892 WAT       -31.6820  -75.6660   -6.8330 O         1 <0>         0.0000
  40893 WAT       -31.6820  -75.6660   -6.5830 O         1 <0>         0.0000
  40894 WAT       -31.6820  -75.6660   -6.3330 O         1 <0>         0.0000
  40895 WAT       -31.6820  -75.6660   -6.0830 O         1 <0>         0.0000
  40896 WAT       -31.6820  -75.6660   -5.8330 O         1 <0>         0.0001
  40897 WAT       -31.6820  -75.6660   -5.5830 O         1 <0>         0.0001
  40898 WAT       -31.6820  -75.6660   -5.3330 O         1 <0>         0.0001
  40899 WAT       -31.6820  -75.6660   -5.0830 O         1 <0>         0.0000
  40900 WAT       -31.6820  -75.6660   -4.8330 O         1 <0>         0.0000
  40901 WAT       -31.6820  -75.6660   -4.5830 O         1 <0>         0.0000
  40902 WAT       -31.6820  -75.6660   -4.3330 O         1 <0>         0.0000
  40903 WAT       -31.6820  -75.6660   -4.0830 O         1 <0>         0.0000
  40904 WAT       -31.6820  -75.6660   -3.8330 O         1 <0>         0.0000
  40905 WAT       -31.6820  -75.6660   -3.5830 O         1 <0>         0.0000
  40906 WAT       -31.6820  -75.6660   -3.3330 O         1 <0>         0.0000
  40907 WAT       -31.6820  -75.6660   -3.0830 O         1 <0>         0.0000
  40908 WAT       -31.6820  -75.6660   -2.8330 O         1 <0>         0.0000
  40909 WAT       -31.6820  -75.6660   -2.5830 O         1 <0>         0.0000
  40910 WAT       -31.6820  -75.6660   -2.3330 O         1 <0>         0.0000
  40911 WAT       -31.6820  -75.6660   -2.0830 O         1 <0>         0.0000
  40912 WAT       -31.6820  -75.6660   -1.8330 O         1 <0>         0.0000
  40913 WAT       -31.6820  -75.6660   -1.5830 O         1 <0>         0.0000
  40914 WAT       -31.6820  -75.6660   -1.3330 O         1 <0>         0.0000
  40915 WAT       -31.6820  -75.6660   -1.0830 O         1 <0>         0.0000
  40916 WAT       -31.6820  -75.6660   -0.8330 O         1 <0>         0.0000
  40917 WAT       -31.6820  -75.6660   -0.5830 O         1 <0>         0.0000
  40918 WAT       -31.6820  -75.6660   -0.3330 O         1 <0>         0.0000
  40919 WAT       -31.6820  -75.6660   -0.0830 O         1 <0>         0.0000
  40920 WAT       -31.6820  -75.4160   -9.8330 O         1 <0>         0.0000
  40921 WAT       -31.6820  -75.4160   -9.5830 O         1 <0>         0.0000
  40922 WAT       -31.6820  -75.4160   -9.3330 O         1 <0>         0.0000
  40923 WAT       -31.6820  -75.4160   -9.0830 O         1 <0>         0.0000
  40924 WAT       -31.6820  -75.4160   -8.8330 O         1 <0>         0.0000
  40925 WAT       -31.6820  -75.4160   -8.5830 O         1 <0>         0.0000
  40926 WAT       -31.6820  -75.4160   -8.3330 O         1 <0>         0.0000
  40927 WAT       -31.6820  -75.4160   -8.0830 O         1 <0>         0.0000
  40928 WAT       -31.6820  -75.4160   -7.8330 O         1 <0>         0.0000
  40929 WAT       -31.6820  -75.4160   -7.5830 O         1 <0>         0.0000
  40930 WAT       -31.6820  -75.4160   -7.3330 O         1 <0>         0.0000
  40931 WAT       -31.6820  -75.4160   -7.0830 O         1 <0>         0.0000
  40932 WAT       -31.6820  -75.4160   -6.8330 O         1 <0>         0.0000
  40933 WAT       -31.6820  -75.4160   -6.5830 O         1 <0>         0.0000
  40934 WAT       -31.6820  -75.4160   -6.3330 O         1 <0>         0.0001
  40935 WAT       -31.6820  -75.4160   -6.0830 O         1 <0>         0.0003
  40936 WAT       -31.6820  -75.4160   -5.8330 O         1 <0>         0.0005
  40937 WAT       -31.6820  -75.4160   -5.5830 O         1 <0>         0.0008
  40938 WAT       -31.6820  -75.4160   -5.3330 O         1 <0>         0.0007
  40939 WAT       -31.6820  -75.4160   -5.0830 O         1 <0>         0.0003
  40940 WAT       -31.6820  -75.4160   -4.8330 O         1 <0>         0.0001
  40941 WAT       -31.6820  -75.4160   -4.5830 O         1 <0>         0.0000
  40942 WAT       -31.6820  -75.4160   -4.3330 O         1 <0>         0.0000
  40943 WAT       -31.6820  -75.4160   -4.0830 O         1 <0>         0.0000
  40944 WAT       -31.6820  -75.4160   -3.8330 O         1 <0>         0.0000
  40945 WAT       -31.6820  -75.4160   -3.5830 O         1 <0>         0.0000
  40946 WAT       -31.6820  -75.4160   -3.3330 O         1 <0>         0.0000
  40947 WAT       -31.6820  -75.4160   -3.0830 O         1 <0>         0.0000
  40948 WAT       -31.6820  -75.4160   -2.8330 O         1 <0>         0.0000
  40949 WAT       -31.6820  -75.4160   -2.5830 O         1 <0>         0.0000
  40950 WAT       -31.6820  -75.4160   -2.3330 O         1 <0>         0.0000
  40951 WAT       -31.6820  -75.4160   -2.0830 O         1 <0>         0.0000
  40952 WAT       -31.6820  -75.4160   -1.8330 O         1 <0>         0.0000
  40953 WAT       -31.6820  -75.4160   -1.5830 O         1 <0>         0.0000
  40954 WAT       -31.6820  -75.4160   -1.3330 O         1 <0>         0.0000
  40955 WAT       -31.6820  -75.4160   -1.0830 O         1 <0>         0.0000
  40956 WAT       -31.6820  -75.4160   -0.8330 O         1 <0>         0.0000
  40957 WAT       -31.6820  -75.4160   -0.5830 O         1 <0>         0.0000
  40958 WAT       -31.6820  -75.4160   -0.3330 O         1 <0>         0.0000
  40959 WAT       -31.6820  -75.4160   -0.0830 O         1 <0>         0.0000
  40960 WAT       -31.6820  -75.1660   -9.8330 O         1 <0>         0.0000
  40961 WAT       -31.6820  -75.1660   -9.5830 O         1 <0>         0.0000
  40962 WAT       -31.6820  -75.1660   -9.3330 O         1 <0>         0.0000
  40963 WAT       -31.6820  -75.1660   -9.0830 O         1 <0>         0.0000
  40964 WAT       -31.6820  -75.1660   -8.8330 O         1 <0>         0.0000
  40965 WAT       -31.6820  -75.1660   -8.5830 O         1 <0>         0.0000
  40966 WAT       -31.6820  -75.1660   -8.3330 O         1 <0>         0.0000
  40967 WAT       -31.6820  -75.1660   -8.0830 O         1 <0>         0.0000
  40968 WAT       -31.6820  -75.1660   -7.8330 O         1 <0>         0.0000
  40969 WAT       -31.6820  -75.1660   -7.5830 O         1 <0>         0.0000
  40970 WAT       -31.6820  -75.1660   -7.3330 O         1 <0>         0.0000
  40971 WAT       -31.6820  -75.1660   -7.0830 O         1 <0>         0.0000
  40972 WAT       -31.6820  -75.1660   -6.8330 O         1 <0>         0.0000
  40973 WAT       -31.6820  -75.1660   -6.5830 O         1 <0>         0.0000
  40974 WAT       -31.6820  -75.1660   -6.3330 O         1 <0>         0.0002
  40975 WAT       -31.6820  -75.1660   -6.0830 O         1 <0>         0.0008
  40976 WAT       -31.6820  -75.1660   -5.8330 O         1 <0>         0.0017
  40977 WAT       -31.6820  -75.1660   -5.5830 O         1 <0>         0.0024
  40978 WAT       -31.6820  -75.1660   -5.3330 O         1 <0>         0.0022
  40979 WAT       -31.6820  -75.1660   -5.0830 O         1 <0>         0.0014
  40980 WAT       -31.6820  -75.1660   -4.8330 O         1 <0>         0.0005
  40981 WAT       -31.6820  -75.1660   -4.5830 O         1 <0>         0.0001
  40982 WAT       -31.6820  -75.1660   -4.3330 O         1 <0>         0.0000
  40983 WAT       -31.6820  -75.1660   -4.0830 O         1 <0>         0.0000
  40984 WAT       -31.6820  -75.1660   -3.8330 O         1 <0>         0.0000
  40985 WAT       -31.6820  -75.1660   -3.5830 O         1 <0>         0.0000
  40986 WAT       -31.6820  -75.1660   -3.3330 O         1 <0>         0.0000
  40987 WAT       -31.6820  -75.1660   -3.0830 O         1 <0>         0.0000
  40988 WAT       -31.6820  -75.1660   -2.8330 O         1 <0>         0.0000
  40989 WAT       -31.6820  -75.1660   -2.5830 O         1 <0>         0.0000
  40990 WAT       -31.6820  -75.1660   -2.3330 O         1 <0>         0.0000
  40991 WAT       -31.6820  -75.1660   -2.0830 O         1 <0>         0.0000
  40992 WAT       -31.6820  -75.1660   -1.8330 O         1 <0>         0.0000
  40993 WAT       -31.6820  -75.1660   -1.5830 O         1 <0>         0.0000
  40994 WAT       -31.6820  -75.1660   -1.3330 O         1 <0>         0.0000
  40995 WAT       -31.6820  -75.1660   -1.0830 O         1 <0>         0.0000
  40996 WAT       -31.6820  -75.1660   -0.8330 O         1 <0>         0.0000
  40997 WAT       -31.6820  -75.1660   -0.5830 O         1 <0>         0.0000
  40998 WAT       -31.6820  -75.1660   -0.3330 O         1 <0>         0.0000
  40999 WAT       -31.6820  -75.1660   -0.0830 O         1 <0>         0.0000
  41000 WAT       -31.6820  -74.9160   -9.8330 O         1 <0>         0.0000
  41001 WAT       -31.6820  -74.9160   -9.5830 O         1 <0>         0.0000
  41002 WAT       -31.6820  -74.9160   -9.3330 O         1 <0>         0.0000
  41003 WAT       -31.6820  -74.9160   -9.0830 O         1 <0>         0.0000
  41004 WAT       -31.6820  -74.9160   -8.8330 O         1 <0>         0.0000
  41005 WAT       -31.6820  -74.9160   -8.5830 O         1 <0>         0.0000
  41006 WAT       -31.6820  -74.9160   -8.3330 O         1 <0>         0.0000
  41007 WAT       -31.6820  -74.9160   -8.0830 O         1 <0>         0.0000
  41008 WAT       -31.6820  -74.9160   -7.8330 O         1 <0>         0.0000
  41009 WAT       -31.6820  -74.9160   -7.5830 O         1 <0>         0.0000
  41010 WAT       -31.6820  -74.9160   -7.3330 O         1 <0>         0.0000
  41011 WAT       -31.6820  -74.9160   -7.0830 O         1 <0>         0.0000
  41012 WAT       -31.6820  -74.9160   -6.8330 O         1 <0>         0.0000
  41013 WAT       -31.6820  -74.9160   -6.5830 O         1 <0>         0.0001
  41014 WAT       -31.6820  -74.9160   -6.3330 O         1 <0>         0.0006
  41015 WAT       -31.6820  -74.9160   -6.0830 O         1 <0>         0.0018
  41016 WAT       -31.6820  -74.9160   -5.8330 O         1 <0>         0.0037
  41017 WAT       -31.6820  -74.9160   -5.5830 O         1 <0>         0.0052
  41018 WAT       -31.6820  -74.9160   -5.3330 O         1 <0>         0.0050
  41019 WAT       -31.6820  -74.9160   -5.0830 O         1 <0>         0.0034
  41020 WAT       -31.6820  -74.9160   -4.8330 O         1 <0>         0.0014
  41021 WAT       -31.6820  -74.9160   -4.5830 O         1 <0>         0.0003
  41022 WAT       -31.6820  -74.9160   -4.3330 O         1 <0>         0.0000
  41023 WAT       -31.6820  -74.9160   -4.0830 O         1 <0>         0.0000
  41024 WAT       -31.6820  -74.9160   -3.8330 O         1 <0>         0.0000
  41025 WAT       -31.6820  -74.9160   -3.5830 O         1 <0>         0.0000
  41026 WAT       -31.6820  -74.9160   -3.3330 O         1 <0>         0.0000
  41027 WAT       -31.6820  -74.9160   -3.0830 O         1 <0>         0.0000
  41028 WAT       -31.6820  -74.9160   -2.8330 O         1 <0>         0.0000
  41029 WAT       -31.6820  -74.9160   -2.5830 O         1 <0>         0.0000
  41030 WAT       -31.6820  -74.9160   -2.3330 O         1 <0>         0.0000
  41031 WAT       -31.6820  -74.9160   -2.0830 O         1 <0>         0.0000
  41032 WAT       -31.6820  -74.9160   -1.8330 O         1 <0>         0.0000
  41033 WAT       -31.6820  -74.9160   -1.5830 O         1 <0>         0.0000
  41034 WAT       -31.6820  -74.9160   -1.3330 O         1 <0>         0.0000
  41035 WAT       -31.6820  -74.9160   -1.0830 O         1 <0>         0.0000
  41036 WAT       -31.6820  -74.9160   -0.8330 O         1 <0>         0.0000
  41037 WAT       -31.6820  -74.9160   -0.5830 O         1 <0>         0.0000
  41038 WAT       -31.6820  -74.9160   -0.3330 O         1 <0>         0.0000
  41039 WAT       -31.6820  -74.9160   -0.0830 O         1 <0>         0.0000
  41040 WAT       -31.6820  -74.6660   -9.8330 O         1 <0>         0.0000
  41041 WAT       -31.6820  -74.6660   -9.5830 O         1 <0>         0.0000
  41042 WAT       -31.6820  -74.6660   -9.3330 O         1 <0>         0.0000
  41043 WAT       -31.6820  -74.6660   -9.0830 O         1 <0>         0.0000
  41044 WAT       -31.6820  -74.6660   -8.8330 O         1 <0>         0.0000
  41045 WAT       -31.6820  -74.6660   -8.5830 O         1 <0>         0.0000
  41046 WAT       -31.6820  -74.6660   -8.3330 O         1 <0>         0.0000
  41047 WAT       -31.6820  -74.6660   -8.0830 O         1 <0>         0.0000
  41048 WAT       -31.6820  -74.6660   -7.8330 O         1 <0>         0.0000
  41049 WAT       -31.6820  -74.6660   -7.5830 O         1 <0>         0.0000
  41050 WAT       -31.6820  -74.6660   -7.3330 O         1 <0>         0.0000
  41051 WAT       -31.6820  -74.6660   -7.0830 O         1 <0>         0.0000
  41052 WAT       -31.6820  -74.6660   -6.8330 O         1 <0>         0.0000
  41053 WAT       -31.6820  -74.6660   -6.5830 O         1 <0>         0.0002
  41054 WAT       -31.6820  -74.6660   -6.3330 O         1 <0>         0.0010
  41055 WAT       -31.6820  -74.6660   -6.0830 O         1 <0>         0.0030
  41056 WAT       -31.6820  -74.6660   -5.8330 O         1 <0>         0.0060
  41057 WAT       -31.6820  -74.6660   -5.5830 O         1 <0>         0.0083
  41058 WAT       -31.6820  -74.6660   -5.3330 O         1 <0>         0.0083
  41059 WAT       -31.6820  -74.6660   -5.0830 O         1 <0>         0.0059
  41060 WAT       -31.6820  -74.6660   -4.8330 O         1 <0>         0.0028
  41061 WAT       -31.6820  -74.6660   -4.5830 O         1 <0>         0.0009
  41062 WAT       -31.6820  -74.6660   -4.3330 O         1 <0>         0.0002
  41063 WAT       -31.6820  -74.6660   -4.0830 O         1 <0>         0.0000
  41064 WAT       -31.6820  -74.6660   -3.8330 O         1 <0>         0.0000
  41065 WAT       -31.6820  -74.6660   -3.5830 O         1 <0>         0.0000
  41066 WAT       -31.6820  -74.6660   -3.3330 O         1 <0>         0.0000
  41067 WAT       -31.6820  -74.6660   -3.0830 O         1 <0>         0.0000
  41068 WAT       -31.6820  -74.6660   -2.8330 O         1 <0>         0.0000
  41069 WAT       -31.6820  -74.6660   -2.5830 O         1 <0>         0.0000
  41070 WAT       -31.6820  -74.6660   -2.3330 O         1 <0>         0.0000
  41071 WAT       -31.6820  -74.6660   -2.0830 O         1 <0>         0.0000
  41072 WAT       -31.6820  -74.6660   -1.8330 O         1 <0>         0.0000
  41073 WAT       -31.6820  -74.6660   -1.5830 O         1 <0>         0.0000
  41074 WAT       -31.6820  -74.6660   -1.3330 O         1 <0>         0.0000
  41075 WAT       -31.6820  -74.6660   -1.0830 O         1 <0>         0.0000
  41076 WAT       -31.6820  -74.6660   -0.8330 O         1 <0>         0.0000
  41077 WAT       -31.6820  -74.6660   -0.5830 O         1 <0>         0.0000
  41078 WAT       -31.6820  -74.6660   -0.3330 O         1 <0>         0.0000
  41079 WAT       -31.6820  -74.6660   -0.0830 O         1 <0>         0.0000
  41080 WAT       -31.6820  -74.4160   -9.8330 O         1 <0>         0.0000
  41081 WAT       -31.6820  -74.4160   -9.5830 O         1 <0>         0.0000
  41082 WAT       -31.6820  -74.4160   -9.3330 O         1 <0>         0.0000
  41083 WAT       -31.6820  -74.4160   -9.0830 O         1 <0>         0.0000
  41084 WAT       -31.6820  -74.4160   -8.8330 O         1 <0>         0.0000
  41085 WAT       -31.6820  -74.4160   -8.5830 O         1 <0>         0.0000
  41086 WAT       -31.6820  -74.4160   -8.3330 O         1 <0>         0.0000
  41087 WAT       -31.6820  -74.4160   -8.0830 O         1 <0>         0.0000
  41088 WAT       -31.6820  -74.4160   -7.8330 O         1 <0>         0.0000
  41089 WAT       -31.6820  -74.4160   -7.5830 O         1 <0>         0.0000
  41090 WAT       -31.6820  -74.4160   -7.3330 O         1 <0>         0.0000
  41091 WAT       -31.6820  -74.4160   -7.0830 O         1 <0>         0.0000
  41092 WAT       -31.6820  -74.4160   -6.8330 O         1 <0>         0.0001
  41093 WAT       -31.6820  -74.4160   -6.5830 O         1 <0>         0.0005
  41094 WAT       -31.6820  -74.4160   -6.3330 O         1 <0>         0.0017
  41095 WAT       -31.6820  -74.4160   -6.0830 O         1 <0>         0.0042
  41096 WAT       -31.6820  -74.4160   -5.8330 O         1 <0>         0.0077
  41097 WAT       -31.6820  -74.4160   -5.5830 O         1 <0>         0.0105
  41098 WAT       -31.6820  -74.4160   -5.3330 O         1 <0>         0.0106
  41099 WAT       -31.6820  -74.4160   -5.0830 O         1 <0>         0.0078
  41100 WAT       -31.6820  -74.4160   -4.8330 O         1 <0>         0.0041
  41101 WAT       -31.6820  -74.4160   -4.5830 O         1 <0>         0.0015
  41102 WAT       -31.6820  -74.4160   -4.3330 O         1 <0>         0.0004
  41103 WAT       -31.6820  -74.4160   -4.0830 O         1 <0>         0.0001
  41104 WAT       -31.6820  -74.4160   -3.8330 O         1 <0>         0.0000
  41105 WAT       -31.6820  -74.4160   -3.5830 O         1 <0>         0.0000
  41106 WAT       -31.6820  -74.4160   -3.3330 O         1 <0>         0.0000
  41107 WAT       -31.6820  -74.4160   -3.0830 O         1 <0>         0.0000
  41108 WAT       -31.6820  -74.4160   -2.8330 O         1 <0>         0.0000
  41109 WAT       -31.6820  -74.4160   -2.5830 O         1 <0>         0.0000
  41110 WAT       -31.6820  -74.4160   -2.3330 O         1 <0>         0.0000
  41111 WAT       -31.6820  -74.4160   -2.0830 O         1 <0>         0.0000
  41112 WAT       -31.6820  -74.4160   -1.8330 O         1 <0>         0.0000
  41113 WAT       -31.6820  -74.4160   -1.5830 O         1 <0>         0.0000
  41114 WAT       -31.6820  -74.4160   -1.3330 O         1 <0>         0.0000
  41115 WAT       -31.6820  -74.4160   -1.0830 O         1 <0>         0.0000
  41116 WAT       -31.6820  -74.4160   -0.8330 O         1 <0>         0.0000
  41117 WAT       -31.6820  -74.4160   -0.5830 O         1 <0>         0.0000
  41118 WAT       -31.6820  -74.4160   -0.3330 O         1 <0>         0.0000
  41119 WAT       -31.6820  -74.4160   -0.0830 O         1 <0>         0.0000
  41120 WAT       -31.6820  -74.1660   -9.8330 O         1 <0>         0.0000
  41121 WAT       -31.6820  -74.1660   -9.5830 O         1 <0>         0.0000
  41122 WAT       -31.6820  -74.1660   -9.3330 O         1 <0>         0.0000
  41123 WAT       -31.6820  -74.1660   -9.0830 O         1 <0>         0.0000
  41124 WAT       -31.6820  -74.1660   -8.8330 O         1 <0>         0.0000
  41125 WAT       -31.6820  -74.1660   -8.5830 O         1 <0>         0.0000
  41126 WAT       -31.6820  -74.1660   -8.3330 O         1 <0>         0.0000
  41127 WAT       -31.6820  -74.1660   -8.0830 O         1 <0>         0.0000
  41128 WAT       -31.6820  -74.1660   -7.8330 O         1 <0>         0.0000
  41129 WAT       -31.6820  -74.1660   -7.5830 O         1 <0>         0.0000
  41130 WAT       -31.6820  -74.1660   -7.3330 O         1 <0>         0.0000
  41131 WAT       -31.6820  -74.1660   -7.0830 O         1 <0>         0.0002
  41132 WAT       -31.6820  -74.1660   -6.8330 O         1 <0>         0.0005
  41133 WAT       -31.6820  -74.1660   -6.5830 O         1 <0>         0.0013
  41134 WAT       -31.6820  -74.1660   -6.3330 O         1 <0>         0.0029
  41135 WAT       -31.6820  -74.1660   -6.0830 O         1 <0>         0.0056
  41136 WAT       -31.6820  -74.1660   -5.8330 O         1 <0>         0.0087
  41137 WAT       -31.6820  -74.1660   -5.5830 O         1 <0>         0.0110
  41138 WAT       -31.6820  -74.1660   -5.3330 O         1 <0>         0.0108
  41139 WAT       -31.6820  -74.1660   -5.0830 O         1 <0>         0.0083
  41140 WAT       -31.6820  -74.1660   -4.8330 O         1 <0>         0.0048
  41141 WAT       -31.6820  -74.1660   -4.5830 O         1 <0>         0.0022
  41142 WAT       -31.6820  -74.1660   -4.3330 O         1 <0>         0.0007
  41143 WAT       -31.6820  -74.1660   -4.0830 O         1 <0>         0.0002
  41144 WAT       -31.6820  -74.1660   -3.8330 O         1 <0>         0.0001
  41145 WAT       -31.6820  -74.1660   -3.5830 O         1 <0>         0.0002
  41146 WAT       -31.6820  -74.1660   -3.3330 O         1 <0>         0.0004
  41147 WAT       -31.6820  -74.1660   -3.0830 O         1 <0>         0.0005
  41148 WAT       -31.6820  -74.1660   -2.8330 O         1 <0>         0.0004
  41149 WAT       -31.6820  -74.1660   -2.5830 O         1 <0>         0.0001
  41150 WAT       -31.6820  -74.1660   -2.3330 O         1 <0>         0.0000
  41151 WAT       -31.6820  -74.1660   -2.0830 O         1 <0>         0.0000
  41152 WAT       -31.6820  -74.1660   -1.8330 O         1 <0>         0.0000
  41153 WAT       -31.6820  -74.1660   -1.5830 O         1 <0>         0.0000
  41154 WAT       -31.6820  -74.1660   -1.3330 O         1 <0>         0.0000
  41155 WAT       -31.6820  -74.1660   -1.0830 O         1 <0>         0.0000
  41156 WAT       -31.6820  -74.1660   -0.8330 O         1 <0>         0.0000
  41157 WAT       -31.6820  -74.1660   -0.5830 O         1 <0>         0.0000
  41158 WAT       -31.6820  -74.1660   -0.3330 O         1 <0>         0.0000
  41159 WAT       -31.6820  -74.1660   -0.0830 O         1 <0>         0.0000
  41160 WAT       -31.6820  -73.9160   -9.8330 O         1 <0>         0.0000
  41161 WAT       -31.6820  -73.9160   -9.5830 O         1 <0>         0.0000
  41162 WAT       -31.6820  -73.9160   -9.3330 O         1 <0>         0.0000
  41163 WAT       -31.6820  -73.9160   -9.0830 O         1 <0>         0.0000
  41164 WAT       -31.6820  -73.9160   -8.8330 O         1 <0>         0.0000
  41165 WAT       -31.6820  -73.9160   -8.5830 O         1 <0>         0.0000
  41166 WAT       -31.6820  -73.9160   -8.3330 O         1 <0>         0.0000
  41167 WAT       -31.6820  -73.9160   -8.0830 O         1 <0>         0.0000
  41168 WAT       -31.6820  -73.9160   -7.8330 O         1 <0>         0.0000
  41169 WAT       -31.6820  -73.9160   -7.5830 O         1 <0>         0.0000
  41170 WAT       -31.6820  -73.9160   -7.3330 O         1 <0>         0.0001
  41171 WAT       -31.6820  -73.9160   -7.0830 O         1 <0>         0.0005
  41172 WAT       -31.6820  -73.9160   -6.8330 O         1 <0>         0.0014
  41173 WAT       -31.6820  -73.9160   -6.5830 O         1 <0>         0.0029
  41174 WAT       -31.6820  -73.9160   -6.3330 O         1 <0>         0.0050
  41175 WAT       -31.6820  -73.9160   -6.0830 O         1 <0>         0.0074
  41176 WAT       -31.6820  -73.9160   -5.8330 O         1 <0>         0.0095
  41177 WAT       -31.6820  -73.9160   -5.5830 O         1 <0>         0.0104
  41178 WAT       -31.6820  -73.9160   -5.3330 O         1 <0>         0.0099
  41179 WAT       -31.6820  -73.9160   -5.0830 O         1 <0>         0.0080
  41180 WAT       -31.6820  -73.9160   -4.8330 O         1 <0>         0.0055
  41181 WAT       -31.6820  -73.9160   -4.5830 O         1 <0>         0.0031
  41182 WAT       -31.6820  -73.9160   -4.3330 O         1 <0>         0.0014
  41183 WAT       -31.6820  -73.9160   -4.0830 O         1 <0>         0.0005
  41184 WAT       -31.6820  -73.9160   -3.8330 O         1 <0>         0.0004
  41185 WAT       -31.6820  -73.9160   -3.5830 O         1 <0>         0.0010
  41186 WAT       -31.6820  -73.9160   -3.3330 O         1 <0>         0.0019
  41187 WAT       -31.6820  -73.9160   -3.0830 O         1 <0>         0.0022
  41188 WAT       -31.6820  -73.9160   -2.8330 O         1 <0>         0.0015
  41189 WAT       -31.6820  -73.9160   -2.5830 O         1 <0>         0.0005
  41190 WAT       -31.6820  -73.9160   -2.3330 O         1 <0>         0.0001
  41191 WAT       -31.6820  -73.9160   -2.0830 O         1 <0>         0.0000
  41192 WAT       -31.6820  -73.9160   -1.8330 O         1 <0>         0.0000
  41193 WAT       -31.6820  -73.9160   -1.5830 O         1 <0>         0.0000
  41194 WAT       -31.6820  -73.9160   -1.3330 O         1 <0>         0.0000
  41195 WAT       -31.6820  -73.9160   -1.0830 O         1 <0>         0.0000
  41196 WAT       -31.6820  -73.9160   -0.8330 O         1 <0>         0.0000
  41197 WAT       -31.6820  -73.9160   -0.5830 O         1 <0>         0.0000
  41198 WAT       -31.6820  -73.9160   -0.3330 O         1 <0>         0.0000
  41199 WAT       -31.6820  -73.9160   -0.0830 O         1 <0>         0.0000
  41200 WAT       -31.6820  -73.6660   -9.8330 O         1 <0>         0.0000
  41201 WAT       -31.6820  -73.6660   -9.5830 O         1 <0>         0.0000
  41202 WAT       -31.6820  -73.6660   -9.3330 O         1 <0>         0.0000
  41203 WAT       -31.6820  -73.6660   -9.0830 O         1 <0>         0.0000
  41204 WAT       -31.6820  -73.6660   -8.8330 O         1 <0>         0.0000
  41205 WAT       -31.6820  -73.6660   -8.5830 O         1 <0>         0.0000
  41206 WAT       -31.6820  -73.6660   -8.3330 O         1 <0>         0.0000
  41207 WAT       -31.6820  -73.6660   -8.0830 O         1 <0>         0.0000
  41208 WAT       -31.6820  -73.6660   -7.8330 O         1 <0>         0.0000
  41209 WAT       -31.6820  -73.6660   -7.5830 O         1 <0>         0.0000
  41210 WAT       -31.6820  -73.6660   -7.3330 O         1 <0>         0.0002
  41211 WAT       -31.6820  -73.6660   -7.0830 O         1 <0>         0.0010
  41212 WAT       -31.6820  -73.6660   -6.8330 O         1 <0>         0.0025
  41213 WAT       -31.6820  -73.6660   -6.5830 O         1 <0>         0.0049
  41214 WAT       -31.6820  -73.6660   -6.3330 O         1 <0>         0.0075
  41215 WAT       -31.6820  -73.6660   -6.0830 O         1 <0>         0.0096
  41216 WAT       -31.6820  -73.6660   -5.8330 O         1 <0>         0.0104
  41217 WAT       -31.6820  -73.6660   -5.5830 O         1 <0>         0.0103
  41218 WAT       -31.6820  -73.6660   -5.3330 O         1 <0>         0.0098
  41219 WAT       -31.6820  -73.6660   -5.0830 O         1 <0>         0.0092
  41220 WAT       -31.6820  -73.6660   -4.8330 O         1 <0>         0.0078
  41221 WAT       -31.6820  -73.6660   -4.5830 O         1 <0>         0.0056
  41222 WAT       -31.6820  -73.6660   -4.3330 O         1 <0>         0.0032
  41223 WAT       -31.6820  -73.6660   -4.0830 O         1 <0>         0.0014
  41224 WAT       -31.6820  -73.6660   -3.8330 O         1 <0>         0.0012
  41225 WAT       -31.6820  -73.6660   -3.5830 O         1 <0>         0.0023
  41226 WAT       -31.6820  -73.6660   -3.3330 O         1 <0>         0.0041
  41227 WAT       -31.6820  -73.6660   -3.0830 O         1 <0>         0.0046
  41228 WAT       -31.6820  -73.6660   -2.8330 O         1 <0>         0.0031
  41229 WAT       -31.6820  -73.6660   -2.5830 O         1 <0>         0.0012
  41230 WAT       -31.6820  -73.6660   -2.3330 O         1 <0>         0.0002
  41231 WAT       -31.6820  -73.6660   -2.0830 O         1 <0>         0.0000
  41232 WAT       -31.6820  -73.6660   -1.8330 O         1 <0>         0.0000
  41233 WAT       -31.6820  -73.6660   -1.5830 O         1 <0>         0.0000
  41234 WAT       -31.6820  -73.6660   -1.3330 O         1 <0>         0.0000
  41235 WAT       -31.6820  -73.6660   -1.0830 O         1 <0>         0.0000
  41236 WAT       -31.6820  -73.6660   -0.8330 O         1 <0>         0.0000
  41237 WAT       -31.6820  -73.6660   -0.5830 O         1 <0>         0.0000
  41238 WAT       -31.6820  -73.6660   -0.3330 O         1 <0>         0.0000
  41239 WAT       -31.6820  -73.6660   -0.0830 O         1 <0>         0.0000
  41240 WAT       -31.6820  -73.4160   -9.8330 O         1 <0>         0.0000
  41241 WAT       -31.6820  -73.4160   -9.5830 O         1 <0>         0.0000
  41242 WAT       -31.6820  -73.4160   -9.3330 O         1 <0>         0.0000
  41243 WAT       -31.6820  -73.4160   -9.0830 O         1 <0>         0.0000
  41244 WAT       -31.6820  -73.4160   -8.8330 O         1 <0>         0.0000
  41245 WAT       -31.6820  -73.4160   -8.5830 O         1 <0>         0.0000
  41246 WAT       -31.6820  -73.4160   -8.3330 O         1 <0>         0.0000
  41247 WAT       -31.6820  -73.4160   -8.0830 O         1 <0>         0.0000
  41248 WAT       -31.6820  -73.4160   -7.8330 O         1 <0>         0.0000
  41249 WAT       -31.6820  -73.4160   -7.5830 O         1 <0>         0.0001
  41250 WAT       -31.6820  -73.4160   -7.3330 O         1 <0>         0.0003
  41251 WAT       -31.6820  -73.4160   -7.0830 O         1 <0>         0.0013
  41252 WAT       -31.6820  -73.4160   -6.8330 O         1 <0>         0.0033
  41253 WAT       -31.6820  -73.4160   -6.5830 O         1 <0>         0.0063
  41254 WAT       -31.6820  -73.4160   -6.3330 O         1 <0>         0.0092
  41255 WAT       -31.6820  -73.4160   -6.0830 O         1 <0>         0.0110
  41256 WAT       -31.6820  -73.4160   -5.8330 O         1 <0>         0.0112
  41257 WAT       -31.6820  -73.4160   -5.5830 O         1 <0>         0.0111
  41258 WAT       -31.6820  -73.4160   -5.3330 O         1 <0>         0.0124
  41259 WAT       -31.6820  -73.4160   -5.0830 O         1 <0>         0.0143
  41260 WAT       -31.6820  -73.4160   -4.8330 O         1 <0>         0.0147
  41261 WAT       -31.6820  -73.4160   -4.5830 O         1 <0>         0.0120
  41262 WAT       -31.6820  -73.4160   -4.3330 O         1 <0>         0.0074
  41263 WAT       -31.6820  -73.4160   -4.0830 O         1 <0>         0.0036
  41264 WAT       -31.6820  -73.4160   -3.8330 O         1 <0>         0.0024
  41265 WAT       -31.6820  -73.4160   -3.5830 O         1 <0>         0.0036
  41266 WAT       -31.6820  -73.4160   -3.3330 O         1 <0>         0.0056
  41267 WAT       -31.6820  -73.4160   -3.0830 O         1 <0>         0.0059
  41268 WAT       -31.6820  -73.4160   -2.8330 O         1 <0>         0.0039
  41269 WAT       -31.6820  -73.4160   -2.5830 O         1 <0>         0.0014
  41270 WAT       -31.6820  -73.4160   -2.3330 O         1 <0>         0.0002
  41271 WAT       -31.6820  -73.4160   -2.0830 O         1 <0>         0.0000
  41272 WAT       -31.6820  -73.4160   -1.8330 O         1 <0>         0.0000
  41273 WAT       -31.6820  -73.4160   -1.5830 O         1 <0>         0.0000
  41274 WAT       -31.6820  -73.4160   -1.3330 O         1 <0>         0.0000
  41275 WAT       -31.6820  -73.4160   -1.0830 O         1 <0>         0.0000
  41276 WAT       -31.6820  -73.4160   -0.8330 O         1 <0>         0.0000
  41277 WAT       -31.6820  -73.4160   -0.5830 O         1 <0>         0.0000
  41278 WAT       -31.6820  -73.4160   -0.3330 O         1 <0>         0.0000
  41279 WAT       -31.6820  -73.4160   -0.0830 O         1 <0>         0.0000
  41280 WAT       -31.6820  -73.1660   -9.8330 O         1 <0>         0.0000
  41281 WAT       -31.6820  -73.1660   -9.5830 O         1 <0>         0.0000
  41282 WAT       -31.6820  -73.1660   -9.3330 O         1 <0>         0.0000
  41283 WAT       -31.6820  -73.1660   -9.0830 O         1 <0>         0.0000
  41284 WAT       -31.6820  -73.1660   -8.8330 O         1 <0>         0.0000
  41285 WAT       -31.6820  -73.1660   -8.5830 O         1 <0>         0.0000
  41286 WAT       -31.6820  -73.1660   -8.3330 O         1 <0>         0.0000
  41287 WAT       -31.6820  -73.1660   -8.0830 O         1 <0>         0.0000
  41288 WAT       -31.6820  -73.1660   -7.8330 O         1 <0>         0.0000
  41289 WAT       -31.6820  -73.1660   -7.5830 O         1 <0>         0.0001
  41290 WAT       -31.6820  -73.1660   -7.3330 O         1 <0>         0.0004
  41291 WAT       -31.6820  -73.1660   -7.0830 O         1 <0>         0.0013
  41292 WAT       -31.6820  -73.1660   -6.8330 O         1 <0>         0.0032
  41293 WAT       -31.6820  -73.1660   -6.5830 O         1 <0>         0.0059
  41294 WAT       -31.6820  -73.1660   -6.3330 O         1 <0>         0.0087
  41295 WAT       -31.6820  -73.1660   -6.0830 O         1 <0>         0.0105
  41296 WAT       -31.6820  -73.1660   -5.8330 O         1 <0>         0.0113
  41297 WAT       -31.6820  -73.1660   -5.5830 O         1 <0>         0.0134
  41298 WAT       -31.6820  -73.1660   -5.3330 O         1 <0>         0.0185
  41299 WAT       -31.6820  -73.1660   -5.0830 O         1 <0>         0.0250
  41300 WAT       -31.6820  -73.1660   -4.8330 O         1 <0>         0.0278
  41301 WAT       -31.6820  -73.1660   -4.5830 O         1 <0>         0.0237
  41302 WAT       -31.6820  -73.1660   -4.3330 O         1 <0>         0.0151
  41303 WAT       -31.6820  -73.1660   -4.0830 O         1 <0>         0.0076
  41304 WAT       -31.6820  -73.1660   -3.8330 O         1 <0>         0.0043
  41305 WAT       -31.6820  -73.1660   -3.5830 O         1 <0>         0.0046
  41306 WAT       -31.6820  -73.1660   -3.3330 O         1 <0>         0.0060
  41307 WAT       -31.6820  -73.1660   -3.0830 O         1 <0>         0.0057
  41308 WAT       -31.6820  -73.1660   -2.8330 O         1 <0>         0.0035
  41309 WAT       -31.6820  -73.1660   -2.5830 O         1 <0>         0.0011
  41310 WAT       -31.6820  -73.1660   -2.3330 O         1 <0>         0.0002
  41311 WAT       -31.6820  -73.1660   -2.0830 O         1 <0>         0.0000
  41312 WAT       -31.6820  -73.1660   -1.8330 O         1 <0>         0.0000
  41313 WAT       -31.6820  -73.1660   -1.5830 O         1 <0>         0.0000
  41314 WAT       -31.6820  -73.1660   -1.3330 O         1 <0>         0.0000
  41315 WAT       -31.6820  -73.1660   -1.0830 O         1 <0>         0.0000
  41316 WAT       -31.6820  -73.1660   -0.8330 O         1 <0>         0.0000
  41317 WAT       -31.6820  -73.1660   -0.5830 O         1 <0>         0.0000
  41318 WAT       -31.6820  -73.1660   -0.3330 O         1 <0>         0.0000
  41319 WAT       -31.6820  -73.1660   -0.0830 O         1 <0>         0.0000
  41320 WAT       -31.6820  -72.9160   -9.8330 O         1 <0>         0.0000
  41321 WAT       -31.6820  -72.9160   -9.5830 O         1 <0>         0.0000
  41322 WAT       -31.6820  -72.9160   -9.3330 O         1 <0>         0.0000
  41323 WAT       -31.6820  -72.9160   -9.0830 O         1 <0>         0.0000
  41324 WAT       -31.6820  -72.9160   -8.8330 O         1 <0>         0.0000
  41325 WAT       -31.6820  -72.9160   -8.5830 O         1 <0>         0.0000
  41326 WAT       -31.6820  -72.9160   -8.3330 O         1 <0>         0.0000
  41327 WAT       -31.6820  -72.9160   -8.0830 O         1 <0>         0.0001
  41328 WAT       -31.6820  -72.9160   -7.8330 O         1 <0>         0.0002
  41329 WAT       -31.6820  -72.9160   -7.5830 O         1 <0>         0.0003
  41330 WAT       -31.6820  -72.9160   -7.3330 O         1 <0>         0.0006
  41331 WAT       -31.6820  -72.9160   -7.0830 O         1 <0>         0.0012
  41332 WAT       -31.6820  -72.9160   -6.8330 O         1 <0>         0.0024
  41333 WAT       -31.6820  -72.9160   -6.5830 O         1 <0>         0.0042
  41334 WAT       -31.6820  -72.9160   -6.3330 O         1 <0>         0.0062
  41335 WAT       -31.6820  -72.9160   -6.0830 O         1 <0>         0.0080
  41336 WAT       -31.6820  -72.9160   -5.8330 O         1 <0>         0.0103
  41337 WAT       -31.6820  -72.9160   -5.5830 O         1 <0>         0.0159
  41338 WAT       -31.6820  -72.9160   -5.3330 O         1 <0>         0.0266
  41339 WAT       -31.6820  -72.9160   -5.0830 O         1 <0>         0.0388
  41340 WAT       -31.6820  -72.9160   -4.8330 O         1 <0>         0.0442
  41341 WAT       -31.6820  -72.9160   -4.5830 O         1 <0>         0.0385
  41342 WAT       -31.6820  -72.9160   -4.3330 O         1 <0>         0.0254
  41343 WAT       -31.6820  -72.9160   -4.0830 O         1 <0>         0.0134
  41344 WAT       -31.6820  -72.9160   -3.8330 O         1 <0>         0.0072
  41345 WAT       -31.6820  -72.9160   -3.5830 O         1 <0>         0.0058
  41346 WAT       -31.6820  -72.9160   -3.3330 O         1 <0>         0.0060
  41347 WAT       -31.6820  -72.9160   -3.0830 O         1 <0>         0.0050
  41348 WAT       -31.6820  -72.9160   -2.8330 O         1 <0>         0.0027
  41349 WAT       -31.6820  -72.9160   -2.5830 O         1 <0>         0.0008
  41350 WAT       -31.6820  -72.9160   -2.3330 O         1 <0>         0.0001
  41351 WAT       -31.6820  -72.9160   -2.0830 O         1 <0>         0.0000
  41352 WAT       -31.6820  -72.9160   -1.8330 O         1 <0>         0.0000
  41353 WAT       -31.6820  -72.9160   -1.5830 O         1 <0>         0.0000
  41354 WAT       -31.6820  -72.9160   -1.3330 O         1 <0>         0.0000
  41355 WAT       -31.6820  -72.9160   -1.0830 O         1 <0>         0.0000
  41356 WAT       -31.6820  -72.9160   -0.8330 O         1 <0>         0.0000
  41357 WAT       -31.6820  -72.9160   -0.5830 O         1 <0>         0.0000
  41358 WAT       -31.6820  -72.9160   -0.3330 O         1 <0>         0.0000
  41359 WAT       -31.6820  -72.9160   -0.0830 O         1 <0>         0.0000
  41360 WAT       -31.6820  -72.6660   -9.8330 O         1 <0>         0.0000
  41361 WAT       -31.6820  -72.6660   -9.5830 O         1 <0>         0.0000
  41362 WAT       -31.6820  -72.6660   -9.3330 O         1 <0>         0.0000
  41363 WAT       -31.6820  -72.6660   -9.0830 O         1 <0>         0.0000
  41364 WAT       -31.6820  -72.6660   -8.8330 O         1 <0>         0.0000
  41365 WAT       -31.6820  -72.6660   -8.5830 O         1 <0>         0.0000
  41366 WAT       -31.6820  -72.6660   -8.3330 O         1 <0>         0.0001
  41367 WAT       -31.6820  -72.6660   -8.0830 O         1 <0>         0.0003
  41368 WAT       -31.6820  -72.6660   -7.8330 O         1 <0>         0.0008
  41369 WAT       -31.6820  -72.6660   -7.5830 O         1 <0>         0.0010
  41370 WAT       -31.6820  -72.6660   -7.3330 O         1 <0>         0.0011
  41371 WAT       -31.6820  -72.6660   -7.0830 O         1 <0>         0.0012
  41372 WAT       -31.6820  -72.6660   -6.8330 O         1 <0>         0.0015
  41373 WAT       -31.6820  -72.6660   -6.5830 O         1 <0>         0.0023
  41374 WAT       -31.6820  -72.6660   -6.3330 O         1 <0>         0.0034
  41375 WAT       -31.6820  -72.6660   -6.0830 O         1 <0>         0.0050
  41376 WAT       -31.6820  -72.6660   -5.8330 O         1 <0>         0.0085
  41377 WAT       -31.6820  -72.6660   -5.5830 O         1 <0>         0.0169
  41378 WAT       -31.6820  -72.6660   -5.3330 O         1 <0>         0.0318
  41379 WAT       -31.6820  -72.6660   -5.0830 O         1 <0>         0.0483
  41380 WAT       -31.6820  -72.6660   -4.8330 O         1 <0>         0.0562
  41381 WAT       -31.6820  -72.6660   -4.5830 O         1 <0>         0.0498
  41382 WAT       -31.6820  -72.6660   -4.3330 O         1 <0>         0.0342
  41383 WAT       -31.6820  -72.6660   -4.0830 O         1 <0>         0.0191
  41384 WAT       -31.6820  -72.6660   -3.8330 O         1 <0>         0.0105
  41385 WAT       -31.6820  -72.6660   -3.5830 O         1 <0>         0.0074
  41386 WAT       -31.6820  -72.6660   -3.3330 O         1 <0>         0.0063
  41387 WAT       -31.6820  -72.6660   -3.0830 O         1 <0>         0.0046
  41388 WAT       -31.6820  -72.6660   -2.8330 O         1 <0>         0.0023
  41389 WAT       -31.6820  -72.6660   -2.5830 O         1 <0>         0.0007
  41390 WAT       -31.6820  -72.6660   -2.3330 O         1 <0>         0.0001
  41391 WAT       -31.6820  -72.6660   -2.0830 O         1 <0>         0.0000
  41392 WAT       -31.6820  -72.6660   -1.8330 O         1 <0>         0.0000
  41393 WAT       -31.6820  -72.6660   -1.5830 O         1 <0>         0.0000
  41394 WAT       -31.6820  -72.6660   -1.3330 O         1 <0>         0.0000
  41395 WAT       -31.6820  -72.6660   -1.0830 O         1 <0>         0.0000
  41396 WAT       -31.6820  -72.6660   -0.8330 O         1 <0>         0.0000
  41397 WAT       -31.6820  -72.6660   -0.5830 O         1 <0>         0.0000
  41398 WAT       -31.6820  -72.6660   -0.3330 O         1 <0>         0.0000
  41399 WAT       -31.6820  -72.6660   -0.0830 O         1 <0>         0.0000
  41400 WAT       -31.6820  -72.4160   -9.8330 O         1 <0>         0.0000
  41401 WAT       -31.6820  -72.4160   -9.5830 O         1 <0>         0.0000
  41402 WAT       -31.6820  -72.4160   -9.3330 O         1 <0>         0.0000
  41403 WAT       -31.6820  -72.4160   -9.0830 O         1 <0>         0.0000
  41404 WAT       -31.6820  -72.4160   -8.8330 O         1 <0>         0.0000
  41405 WAT       -31.6820  -72.4160   -8.5830 O         1 <0>         0.0000
  41406 WAT       -31.6820  -72.4160   -8.3330 O         1 <0>         0.0003
  41407 WAT       -31.6820  -72.4160   -8.0830 O         1 <0>         0.0014
  41408 WAT       -31.6820  -72.4160   -7.8330 O         1 <0>         0.0025
  41409 WAT       -31.6820  -72.4160   -7.5830 O         1 <0>         0.0026
  41410 WAT       -31.6820  -72.4160   -7.3330 O         1 <0>         0.0020
  41411 WAT       -31.6820  -72.4160   -7.0830 O         1 <0>         0.0013
  41412 WAT       -31.6820  -72.4160   -6.8330 O         1 <0>         0.0010
  41413 WAT       -31.6820  -72.4160   -6.5830 O         1 <0>         0.0011
  41414 WAT       -31.6820  -72.4160   -6.3330 O         1 <0>         0.0015
  41415 WAT       -31.6820  -72.4160   -6.0830 O         1 <0>         0.0027
  41416 WAT       -31.6820  -72.4160   -5.8330 O         1 <0>         0.0062
  41417 WAT       -31.6820  -72.4160   -5.5830 O         1 <0>         0.0151
  41418 WAT       -31.6820  -72.4160   -5.3330 O         1 <0>         0.0304
  41419 WAT       -31.6820  -72.4160   -5.0830 O         1 <0>         0.0475
  41420 WAT       -31.6820  -72.4160   -4.8330 O         1 <0>         0.0564
  41421 WAT       -31.6820  -72.4160   -4.5830 O         1 <0>         0.0514
  41422 WAT       -31.6820  -72.4160   -4.3330 O         1 <0>         0.0367
  41423 WAT       -31.6820  -72.4160   -4.0830 O         1 <0>         0.0218
  41424 WAT       -31.6820  -72.4160   -3.8330 O         1 <0>         0.0124
  41425 WAT       -31.6820  -72.4160   -3.5830 O         1 <0>         0.0082
  41426 WAT       -31.6820  -72.4160   -3.3330 O         1 <0>         0.0062
  41427 WAT       -31.6820  -72.4160   -3.0830 O         1 <0>         0.0040
  41428 WAT       -31.6820  -72.4160   -2.8330 O         1 <0>         0.0019
  41429 WAT       -31.6820  -72.4160   -2.5830 O         1 <0>         0.0006
  41430 WAT       -31.6820  -72.4160   -2.3330 O         1 <0>         0.0001
  41431 WAT       -31.6820  -72.4160   -2.0830 O         1 <0>         0.0000
  41432 WAT       -31.6820  -72.4160   -1.8330 O         1 <0>         0.0000
  41433 WAT       -31.6820  -72.4160   -1.5830 O         1 <0>         0.0000
  41434 WAT       -31.6820  -72.4160   -1.3330 O         1 <0>         0.0000
  41435 WAT       -31.6820  -72.4160   -1.0830 O         1 <0>         0.0000
  41436 WAT       -31.6820  -72.4160   -0.8330 O         1 <0>         0.0000
  41437 WAT       -31.6820  -72.4160   -0.5830 O         1 <0>         0.0000
  41438 WAT       -31.6820  -72.4160   -0.3330 O         1 <0>         0.0000
  41439 WAT       -31.6820  -72.4160   -0.0830 O         1 <0>         0.0000
  41440 WAT       -31.6820  -72.1660   -9.8330 O         1 <0>         0.0000
  41441 WAT       -31.6820  -72.1660   -9.5830 O         1 <0>         0.0000
  41442 WAT       -31.6820  -72.1660   -9.3330 O         1 <0>         0.0000
  41443 WAT       -31.6820  -72.1660   -9.0830 O         1 <0>         0.0000
  41444 WAT       -31.6820  -72.1660   -8.8330 O         1 <0>         0.0000
  41445 WAT       -31.6820  -72.1660   -8.5830 O         1 <0>         0.0001
  41446 WAT       -31.6820  -72.1660   -8.3330 O         1 <0>         0.0011
  41447 WAT       -31.6820  -72.1660   -8.0830 O         1 <0>         0.0033
  41448 WAT       -31.6820  -72.1660   -7.8330 O         1 <0>         0.0050
  41449 WAT       -31.6820  -72.1660   -7.5830 O         1 <0>         0.0047
  41450 WAT       -31.6820  -72.1660   -7.3330 O         1 <0>         0.0029
  41451 WAT       -31.6820  -72.1660   -7.0830 O         1 <0>         0.0014
  41452 WAT       -31.6820  -72.1660   -6.8330 O         1 <0>         0.0007
  41453 WAT       -31.6820  -72.1660   -6.5830 O         1 <0>         0.0005
  41454 WAT       -31.6820  -72.1660   -6.3330 O         1 <0>         0.0006
  41455 WAT       -31.6820  -72.1660   -6.0830 O         1 <0>         0.0014
  41456 WAT       -31.6820  -72.1660   -5.8330 O         1 <0>         0.0041
  41457 WAT       -31.6820  -72.1660   -5.5830 O         1 <0>         0.0112
  41458 WAT       -31.6820  -72.1660   -5.3330 O         1 <0>         0.0237
  41459 WAT       -31.6820  -72.1660   -5.0830 O         1 <0>         0.0378
  41460 WAT       -31.6820  -72.1660   -4.8330 O         1 <0>         0.0457
  41461 WAT       -31.6820  -72.1660   -4.5830 O         1 <0>         0.0425
  41462 WAT       -31.6820  -72.1660   -4.3330 O         1 <0>         0.0315
  41463 WAT       -31.6820  -72.1660   -4.0830 O         1 <0>         0.0195
  41464 WAT       -31.6820  -72.1660   -3.8330 O         1 <0>         0.0113
  41465 WAT       -31.6820  -72.1660   -3.5830 O         1 <0>         0.0071
  41466 WAT       -31.6820  -72.1660   -3.3330 O         1 <0>         0.0049
  41467 WAT       -31.6820  -72.1660   -3.0830 O         1 <0>         0.0030
  41468 WAT       -31.6820  -72.1660   -2.8330 O         1 <0>         0.0014
  41469 WAT       -31.6820  -72.1660   -2.5830 O         1 <0>         0.0004
  41470 WAT       -31.6820  -72.1660   -2.3330 O         1 <0>         0.0001
  41471 WAT       -31.6820  -72.1660   -2.0830 O         1 <0>         0.0000
  41472 WAT       -31.6820  -72.1660   -1.8330 O         1 <0>         0.0000
  41473 WAT       -31.6820  -72.1660   -1.5830 O         1 <0>         0.0000
  41474 WAT       -31.6820  -72.1660   -1.3330 O         1 <0>         0.0000
  41475 WAT       -31.6820  -72.1660   -1.0830 O         1 <0>         0.0000
  41476 WAT       -31.6820  -72.1660   -0.8330 O         1 <0>         0.0000
  41477 WAT       -31.6820  -72.1660   -0.5830 O         1 <0>         0.0000
  41478 WAT       -31.6820  -72.1660   -0.3330 O         1 <0>         0.0000
  41479 WAT       -31.6820  -72.1660   -0.0830 O         1 <0>         0.0000
  41480 WAT       -31.6820  -71.9160   -9.8330 O         1 <0>         0.0000
  41481 WAT       -31.6820  -71.9160   -9.5830 O         1 <0>         0.0000
  41482 WAT       -31.6820  -71.9160   -9.3330 O         1 <0>         0.0000
  41483 WAT       -31.6820  -71.9160   -9.0830 O         1 <0>         0.0000
  41484 WAT       -31.6820  -71.9160   -8.8330 O         1 <0>         0.0000
  41485 WAT       -31.6820  -71.9160   -8.5830 O         1 <0>         0.0004
  41486 WAT       -31.6820  -71.9160   -8.3330 O         1 <0>         0.0021
  41487 WAT       -31.6820  -71.9160   -8.0830 O         1 <0>         0.0051
  41488 WAT       -31.6820  -71.9160   -7.8330 O         1 <0>         0.0069
  41489 WAT       -31.6820  -71.9160   -7.5830 O         1 <0>         0.0057
  41490 WAT       -31.6820  -71.9160   -7.3330 O         1 <0>         0.0031
  41491 WAT       -31.6820  -71.9160   -7.0830 O         1 <0>         0.0012
  41492 WAT       -31.6820  -71.9160   -6.8330 O         1 <0>         0.0004
  41493 WAT       -31.6820  -71.9160   -6.5830 O         1 <0>         0.0002
  41494 WAT       -31.6820  -71.9160   -6.3330 O         1 <0>         0.0004
  41495 WAT       -31.6820  -71.9160   -6.0830 O         1 <0>         0.0010
  41496 WAT       -31.6820  -71.9160   -5.8330 O         1 <0>         0.0028
  41497 WAT       -31.6820  -71.9160   -5.5830 O         1 <0>         0.0075
  41498 WAT       -31.6820  -71.9160   -5.3330 O         1 <0>         0.0158
  41499 WAT       -31.6820  -71.9160   -5.0830 O         1 <0>         0.0252
  41500 WAT       -31.6820  -71.9160   -4.8330 O         1 <0>         0.0305
  41501 WAT       -31.6820  -71.9160   -4.5830 O         1 <0>         0.0285
  41502 WAT       -31.6820  -71.9160   -4.3330 O         1 <0>         0.0214
  41503 WAT       -31.6820  -71.9160   -4.0830 O         1 <0>         0.0135
  41504 WAT       -31.6820  -71.9160   -3.8330 O         1 <0>         0.0078
  41505 WAT       -31.6820  -71.9160   -3.5830 O         1 <0>         0.0046
  41506 WAT       -31.6820  -71.9160   -3.3330 O         1 <0>         0.0030
  41507 WAT       -31.6820  -71.9160   -3.0830 O         1 <0>         0.0019
  41508 WAT       -31.6820  -71.9160   -2.8330 O         1 <0>         0.0009
  41509 WAT       -31.6820  -71.9160   -2.5830 O         1 <0>         0.0003
  41510 WAT       -31.6820  -71.9160   -2.3330 O         1 <0>         0.0001
  41511 WAT       -31.6820  -71.9160   -2.0830 O         1 <0>         0.0000
  41512 WAT       -31.6820  -71.9160   -1.8330 O         1 <0>         0.0000
  41513 WAT       -31.6820  -71.9160   -1.5830 O         1 <0>         0.0000
  41514 WAT       -31.6820  -71.9160   -1.3330 O         1 <0>         0.0000
  41515 WAT       -31.6820  -71.9160   -1.0830 O         1 <0>         0.0000
  41516 WAT       -31.6820  -71.9160   -0.8330 O         1 <0>         0.0000
  41517 WAT       -31.6820  -71.9160   -0.5830 O         1 <0>         0.0000
  41518 WAT       -31.6820  -71.9160   -0.3330 O         1 <0>         0.0000
  41519 WAT       -31.6820  -71.9160   -0.0830 O         1 <0>         0.0000
  41520 WAT       -31.6820  -71.6660   -9.8330 O         1 <0>         0.0000
  41521 WAT       -31.6820  -71.6660   -9.5830 O         1 <0>         0.0000
  41522 WAT       -31.6820  -71.6660   -9.3330 O         1 <0>         0.0000
  41523 WAT       -31.6820  -71.6660   -9.0830 O         1 <0>         0.0000
  41524 WAT       -31.6820  -71.6660   -8.8330 O         1 <0>         0.0001
  41525 WAT       -31.6820  -71.6660   -8.5830 O         1 <0>         0.0007
  41526 WAT       -31.6820  -71.6660   -8.3330 O         1 <0>         0.0026
  41527 WAT       -31.6820  -71.6660   -8.0830 O         1 <0>         0.0054
  41528 WAT       -31.6820  -71.6660   -7.8330 O         1 <0>         0.0064
  41529 WAT       -31.6820  -71.6660   -7.5830 O         1 <0>         0.0048
  41530 WAT       -31.6820  -71.6660   -7.3330 O         1 <0>         0.0023
  41531 WAT       -31.6820  -71.6660   -7.0830 O         1 <0>         0.0007
  41532 WAT       -31.6820  -71.6660   -6.8330 O         1 <0>         0.0002
  41533 WAT       -31.6820  -71.6660   -6.5830 O         1 <0>         0.0003
  41534 WAT       -31.6820  -71.6660   -6.3330 O         1 <0>         0.0010
  41535 WAT       -31.6820  -71.6660   -6.0830 O         1 <0>         0.0018
  41536 WAT       -31.6820  -71.6660   -5.8330 O         1 <0>         0.0029
  41537 WAT       -31.6820  -71.6660   -5.5830 O         1 <0>         0.0052
  41538 WAT       -31.6820  -71.6660   -5.3330 O         1 <0>         0.0096
  41539 WAT       -31.6820  -71.6660   -5.0830 O         1 <0>         0.0147
  41540 WAT       -31.6820  -71.6660   -4.8330 O         1 <0>         0.0171
  41541 WAT       -31.6820  -71.6660   -4.5830 O         1 <0>         0.0156
  41542 WAT       -31.6820  -71.6660   -4.3330 O         1 <0>         0.0114
  41543 WAT       -31.6820  -71.6660   -4.0830 O         1 <0>         0.0070
  41544 WAT       -31.6820  -71.6660   -3.8330 O         1 <0>         0.0039
  41545 WAT       -31.6820  -71.6660   -3.5830 O         1 <0>         0.0022
  41546 WAT       -31.6820  -71.6660   -3.3330 O         1 <0>         0.0015
  41547 WAT       -31.6820  -71.6660   -3.0830 O         1 <0>         0.0010
  41548 WAT       -31.6820  -71.6660   -2.8330 O         1 <0>         0.0005
  41549 WAT       -31.6820  -71.6660   -2.5830 O         1 <0>         0.0002
  41550 WAT       -31.6820  -71.6660   -2.3330 O         1 <0>         0.0000
  41551 WAT       -31.6820  -71.6660   -2.0830 O         1 <0>         0.0000
  41552 WAT       -31.6820  -71.6660   -1.8330 O         1 <0>         0.0000
  41553 WAT       -31.6820  -71.6660   -1.5830 O         1 <0>         0.0000
  41554 WAT       -31.6820  -71.6660   -1.3330 O         1 <0>         0.0000
  41555 WAT       -31.6820  -71.6660   -1.0830 O         1 <0>         0.0000
  41556 WAT       -31.6820  -71.6660   -0.8330 O         1 <0>         0.0000
  41557 WAT       -31.6820  -71.6660   -0.5830 O         1 <0>         0.0000
  41558 WAT       -31.6820  -71.6660   -0.3330 O         1 <0>         0.0000
  41559 WAT       -31.6820  -71.6660   -0.0830 O         1 <0>         0.0000
  41560 WAT       -31.6820  -71.4160   -9.8330 O         1 <0>         0.0000
  41561 WAT       -31.6820  -71.4160   -9.5830 O         1 <0>         0.0000
  41562 WAT       -31.6820  -71.4160   -9.3330 O         1 <0>         0.0000
  41563 WAT       -31.6820  -71.4160   -9.0830 O         1 <0>         0.0000
  41564 WAT       -31.6820  -71.4160   -8.8330 O         1 <0>         0.0001
  41565 WAT       -31.6820  -71.4160   -8.5830 O         1 <0>         0.0008
  41566 WAT       -31.6820  -71.4160   -8.3330 O         1 <0>         0.0023
  41567 WAT       -31.6820  -71.4160   -8.0830 O         1 <0>         0.0039
  41568 WAT       -31.6820  -71.4160   -7.8330 O         1 <0>         0.0041
  41569 WAT       -31.6820  -71.4160   -7.5830 O         1 <0>         0.0027
  41570 WAT       -31.6820  -71.4160   -7.3330 O         1 <0>         0.0012
  41571 WAT       -31.6820  -71.4160   -7.0830 O         1 <0>         0.0004
  41572 WAT       -31.6820  -71.4160   -6.8330 O         1 <0>         0.0003
  41573 WAT       -31.6820  -71.4160   -6.5830 O         1 <0>         0.0012
  41574 WAT       -31.6820  -71.4160   -6.3330 O         1 <0>         0.0032
  41575 WAT       -31.6820  -71.4160   -6.0830 O         1 <0>         0.0048
  41576 WAT       -31.6820  -71.4160   -5.8330 O         1 <0>         0.0048
  41577 WAT       -31.6820  -71.4160   -5.5830 O         1 <0>         0.0045
  41578 WAT       -31.6820  -71.4160   -5.3330 O         1 <0>         0.0056
  41579 WAT       -31.6820  -71.4160   -5.0830 O         1 <0>         0.0075
  41580 WAT       -31.6820  -71.4160   -4.8330 O         1 <0>         0.0081
  41581 WAT       -31.6820  -71.4160   -4.5830 O         1 <0>         0.0069
  41582 WAT       -31.6820  -71.4160   -4.3330 O         1 <0>         0.0047
  41583 WAT       -31.6820  -71.4160   -4.0830 O         1 <0>         0.0026
  41584 WAT       -31.6820  -71.4160   -3.8330 O         1 <0>         0.0013
  41585 WAT       -31.6820  -71.4160   -3.5830 O         1 <0>         0.0008
  41586 WAT       -31.6820  -71.4160   -3.3330 O         1 <0>         0.0005
  41587 WAT       -31.6820  -71.4160   -3.0830 O         1 <0>         0.0004
  41588 WAT       -31.6820  -71.4160   -2.8330 O         1 <0>         0.0002
  41589 WAT       -31.6820  -71.4160   -2.5830 O         1 <0>         0.0001
  41590 WAT       -31.6820  -71.4160   -2.3330 O         1 <0>         0.0000
  41591 WAT       -31.6820  -71.4160   -2.0830 O         1 <0>         0.0000
  41592 WAT       -31.6820  -71.4160   -1.8330 O         1 <0>         0.0000
  41593 WAT       -31.6820  -71.4160   -1.5830 O         1 <0>         0.0000
  41594 WAT       -31.6820  -71.4160   -1.3330 O         1 <0>         0.0000
  41595 WAT       -31.6820  -71.4160   -1.0830 O         1 <0>         0.0000
  41596 WAT       -31.6820  -71.4160   -0.8330 O         1 <0>         0.0000
  41597 WAT       -31.6820  -71.4160   -0.5830 O         1 <0>         0.0000
  41598 WAT       -31.6820  -71.4160   -0.3330 O         1 <0>         0.0000
  41599 WAT       -31.6820  -71.4160   -0.0830 O         1 <0>         0.0000
  41600 WAT       -31.6820  -71.1660   -9.8330 O         1 <0>         0.0000
  41601 WAT       -31.6820  -71.1660   -9.5830 O         1 <0>         0.0000
  41602 WAT       -31.6820  -71.1660   -9.3330 O         1 <0>         0.0000
  41603 WAT       -31.6820  -71.1660   -9.0830 O         1 <0>         0.0000
  41604 WAT       -31.6820  -71.1660   -8.8330 O         1 <0>         0.0002
  41605 WAT       -31.6820  -71.1660   -8.5830 O         1 <0>         0.0006
  41606 WAT       -31.6820  -71.1660   -8.3330 O         1 <0>         0.0015
  41607 WAT       -31.6820  -71.1660   -8.0830 O         1 <0>         0.0023
  41608 WAT       -31.6820  -71.1660   -7.8330 O         1 <0>         0.0021
  41609 WAT       -31.6820  -71.1660   -7.5830 O         1 <0>         0.0014
  41610 WAT       -31.6820  -71.1660   -7.3330 O         1 <0>         0.0007
  41611 WAT       -31.6820  -71.1660   -7.0830 O         1 <0>         0.0003
  41612 WAT       -31.6820  -71.1660   -6.8330 O         1 <0>         0.0007
  41613 WAT       -31.6820  -71.1660   -6.5830 O         1 <0>         0.0032
  41614 WAT       -31.6820  -71.1660   -6.3330 O         1 <0>         0.0073
  41615 WAT       -31.6820  -71.1660   -6.0830 O         1 <0>         0.0096
  41616 WAT       -31.6820  -71.1660   -5.8330 O         1 <0>         0.0081
  41617 WAT       -31.6820  -71.1660   -5.5830 O         1 <0>         0.0050
  41618 WAT       -31.6820  -71.1660   -5.3330 O         1 <0>         0.0033
  41619 WAT       -31.6820  -71.1660   -5.0830 O         1 <0>         0.0032
  41620 WAT       -31.6820  -71.1660   -4.8330 O         1 <0>         0.0030
  41621 WAT       -31.6820  -71.1660   -4.5830 O         1 <0>         0.0023
  41622 WAT       -31.6820  -71.1660   -4.3330 O         1 <0>         0.0014
  41623 WAT       -31.6820  -71.1660   -4.0830 O         1 <0>         0.0007
  41624 WAT       -31.6820  -71.1660   -3.8330 O         1 <0>         0.0003
  41625 WAT       -31.6820  -71.1660   -3.5830 O         1 <0>         0.0002
  41626 WAT       -31.6820  -71.1660   -3.3330 O         1 <0>         0.0001
  41627 WAT       -31.6820  -71.1660   -3.0830 O         1 <0>         0.0001
  41628 WAT       -31.6820  -71.1660   -2.8330 O         1 <0>         0.0001
  41629 WAT       -31.6820  -71.1660   -2.5830 O         1 <0>         0.0000
  41630 WAT       -31.6820  -71.1660   -2.3330 O         1 <0>         0.0000
  41631 WAT       -31.6820  -71.1660   -2.0830 O         1 <0>         0.0000
  41632 WAT       -31.6820  -71.1660   -1.8330 O         1 <0>         0.0000
  41633 WAT       -31.6820  -71.1660   -1.5830 O         1 <0>         0.0000
  41634 WAT       -31.6820  -71.1660   -1.3330 O         1 <0>         0.0000
  41635 WAT       -31.6820  -71.1660   -1.0830 O         1 <0>         0.0000
  41636 WAT       -31.6820  -71.1660   -0.8330 O         1 <0>         0.0000
  41637 WAT       -31.6820  -71.1660   -0.5830 O         1 <0>         0.0000
  41638 WAT       -31.6820  -71.1660   -0.3330 O         1 <0>         0.0000
  41639 WAT       -31.6820  -71.1660   -0.0830 O         1 <0>         0.0000
  41640 WAT       -31.6820  -70.9160   -9.8330 O         1 <0>         0.0000
  41641 WAT       -31.6820  -70.9160   -9.5830 O         1 <0>         0.0000
  41642 WAT       -31.6820  -70.9160   -9.3330 O         1 <0>         0.0000
  41643 WAT       -31.6820  -70.9160   -9.0830 O         1 <0>         0.0000
  41644 WAT       -31.6820  -70.9160   -8.8330 O         1 <0>         0.0001
  41645 WAT       -31.6820  -70.9160   -8.5830 O         1 <0>         0.0004
  41646 WAT       -31.6820  -70.9160   -8.3330 O         1 <0>         0.0009
  41647 WAT       -31.6820  -70.9160   -8.0830 O         1 <0>         0.0011
  41648 WAT       -31.6820  -70.9160   -7.8330 O         1 <0>         0.0011
  41649 WAT       -31.6820  -70.9160   -7.5830 O         1 <0>         0.0008
  41650 WAT       -31.6820  -70.9160   -7.3330 O         1 <0>         0.0006
  41651 WAT       -31.6820  -70.9160   -7.0830 O         1 <0>         0.0004
  41652 WAT       -31.6820  -70.9160   -6.8330 O         1 <0>         0.0013
  41653 WAT       -31.6820  -70.9160   -6.5830 O         1 <0>         0.0054
  41654 WAT       -31.6820  -70.9160   -6.3330 O         1 <0>         0.0114
  41655 WAT       -31.6820  -70.9160   -6.0830 O         1 <0>         0.0140
  41656 WAT       -31.6820  -70.9160   -5.8330 O         1 <0>         0.0106
  41657 WAT       -31.6820  -70.9160   -5.5830 O         1 <0>         0.0053
  41658 WAT       -31.6820  -70.9160   -5.3330 O         1 <0>         0.0020
  41659 WAT       -31.6820  -70.9160   -5.0830 O         1 <0>         0.0011
  41660 WAT       -31.6820  -70.9160   -4.8330 O         1 <0>         0.0008
  41661 WAT       -31.6820  -70.9160   -4.5830 O         1 <0>         0.0005
  41662 WAT       -31.6820  -70.9160   -4.3330 O         1 <0>         0.0003
  41663 WAT       -31.6820  -70.9160   -4.0830 O         1 <0>         0.0001
  41664 WAT       -31.6820  -70.9160   -3.8330 O         1 <0>         0.0001
  41665 WAT       -31.6820  -70.9160   -3.5830 O         1 <0>         0.0000
  41666 WAT       -31.6820  -70.9160   -3.3330 O         1 <0>         0.0000
  41667 WAT       -31.6820  -70.9160   -3.0830 O         1 <0>         0.0000
  41668 WAT       -31.6820  -70.9160   -2.8330 O         1 <0>         0.0000
  41669 WAT       -31.6820  -70.9160   -2.5830 O         1 <0>         0.0000
  41670 WAT       -31.6820  -70.9160   -2.3330 O         1 <0>         0.0000
  41671 WAT       -31.6820  -70.9160   -2.0830 O         1 <0>         0.0000
  41672 WAT       -31.6820  -70.9160   -1.8330 O         1 <0>         0.0000
  41673 WAT       -31.6820  -70.9160   -1.5830 O         1 <0>         0.0000
  41674 WAT       -31.6820  -70.9160   -1.3330 O         1 <0>         0.0000
  41675 WAT       -31.6820  -70.9160   -1.0830 O         1 <0>         0.0000
  41676 WAT       -31.6820  -70.9160   -0.8330 O         1 <0>         0.0000
  41677 WAT       -31.6820  -70.9160   -0.5830 O         1 <0>         0.0000
  41678 WAT       -31.6820  -70.9160   -0.3330 O         1 <0>         0.0000
  41679 WAT       -31.6820  -70.9160   -0.0830 O         1 <0>         0.0000
  41680 WAT       -31.6820  -70.6660   -9.8330 O         1 <0>         0.0000
  41681 WAT       -31.6820  -70.6660   -9.5830 O         1 <0>         0.0000
  41682 WAT       -31.6820  -70.6660   -9.3330 O         1 <0>         0.0000
  41683 WAT       -31.6820  -70.6660   -9.0830 O         1 <0>         0.0000
  41684 WAT       -31.6820  -70.6660   -8.8330 O         1 <0>         0.0001
  41685 WAT       -31.6820  -70.6660   -8.5830 O         1 <0>         0.0003
  41686 WAT       -31.6820  -70.6660   -8.3330 O         1 <0>         0.0005
  41687 WAT       -31.6820  -70.6660   -8.0830 O         1 <0>         0.0006
  41688 WAT       -31.6820  -70.6660   -7.8330 O         1 <0>         0.0006
  41689 WAT       -31.6820  -70.6660   -7.5830 O         1 <0>         0.0006
  41690 WAT       -31.6820  -70.6660   -7.3330 O         1 <0>         0.0005
  41691 WAT       -31.6820  -70.6660   -7.0830 O         1 <0>         0.0004
  41692 WAT       -31.6820  -70.6660   -6.8330 O         1 <0>         0.0017
  41693 WAT       -31.6820  -70.6660   -6.5830 O         1 <0>         0.0063
  41694 WAT       -31.6820  -70.6660   -6.3330 O         1 <0>         0.0124
  41695 WAT       -31.6820  -70.6660   -6.0830 O         1 <0>         0.0143
  41696 WAT       -31.6820  -70.6660   -5.8330 O         1 <0>         0.0102
  41697 WAT       -31.6820  -70.6660   -5.5830 O         1 <0>         0.0044
  41698 WAT       -31.6820  -70.6660   -5.3330 O         1 <0>         0.0012
  41699 WAT       -31.6820  -70.6660   -5.0830 O         1 <0>         0.0003
  41700 WAT       -31.6820  -70.6660   -4.8330 O         1 <0>         0.0002
  41701 WAT       -31.6820  -70.6660   -4.5830 O         1 <0>         0.0001
  41702 WAT       -31.6820  -70.6660   -4.3330 O         1 <0>         0.0000
  41703 WAT       -31.6820  -70.6660   -4.0830 O         1 <0>         0.0000
  41704 WAT       -31.6820  -70.6660   -3.8330 O         1 <0>         0.0000
  41705 WAT       -31.6820  -70.6660   -3.5830 O         1 <0>         0.0000
  41706 WAT       -31.6820  -70.6660   -3.3330 O         1 <0>         0.0000
  41707 WAT       -31.6820  -70.6660   -3.0830 O         1 <0>         0.0000
  41708 WAT       -31.6820  -70.6660   -2.8330 O         1 <0>         0.0000
  41709 WAT       -31.6820  -70.6660   -2.5830 O         1 <0>         0.0000
  41710 WAT       -31.6820  -70.6660   -2.3330 O         1 <0>         0.0000
  41711 WAT       -31.6820  -70.6660   -2.0830 O         1 <0>         0.0000
  41712 WAT       -31.6820  -70.6660   -1.8330 O         1 <0>         0.0000
  41713 WAT       -31.6820  -70.6660   -1.5830 O         1 <0>         0.0000
  41714 WAT       -31.6820  -70.6660   -1.3330 O         1 <0>         0.0000
  41715 WAT       -31.6820  -70.6660   -1.0830 O         1 <0>         0.0000
  41716 WAT       -31.6820  -70.6660   -0.8330 O         1 <0>         0.0000
  41717 WAT       -31.6820  -70.6660   -0.5830 O         1 <0>         0.0000
  41718 WAT       -31.6820  -70.6660   -0.3330 O         1 <0>         0.0000
  41719 WAT       -31.6820  -70.6660   -0.0830 O         1 <0>         0.0000
  41720 WAT       -31.6820  -70.4160   -9.8330 O         1 <0>         0.0000
  41721 WAT       -31.6820  -70.4160   -9.5830 O         1 <0>         0.0000
  41722 WAT       -31.6820  -70.4160   -9.3330 O         1 <0>         0.0000
  41723 WAT       -31.6820  -70.4160   -9.0830 O         1 <0>         0.0000
  41724 WAT       -31.6820  -70.4160   -8.8330 O         1 <0>         0.0001
  41725 WAT       -31.6820  -70.4160   -8.5830 O         1 <0>         0.0002
  41726 WAT       -31.6820  -70.4160   -8.3330 O         1 <0>         0.0003
  41727 WAT       -31.6820  -70.4160   -8.0830 O         1 <0>         0.0003
  41728 WAT       -31.6820  -70.4160   -7.8330 O         1 <0>         0.0004
  41729 WAT       -31.6820  -70.4160   -7.5830 O         1 <0>         0.0004
  41730 WAT       -31.6820  -70.4160   -7.3330 O         1 <0>         0.0004
  41731 WAT       -31.6820  -70.4160   -7.0830 O         1 <0>         0.0004
  41732 WAT       -31.6820  -70.4160   -6.8330 O         1 <0>         0.0015
  41733 WAT       -31.6820  -70.4160   -6.5830 O         1 <0>         0.0052
  41734 WAT       -31.6820  -70.4160   -6.3330 O         1 <0>         0.0097
  41735 WAT       -31.6820  -70.4160   -6.0830 O         1 <0>         0.0107
  41736 WAT       -31.6820  -70.4160   -5.8330 O         1 <0>         0.0071
  41737 WAT       -31.6820  -70.4160   -5.5830 O         1 <0>         0.0028
  41738 WAT       -31.6820  -70.4160   -5.3330 O         1 <0>         0.0007
  41739 WAT       -31.6820  -70.4160   -5.0830 O         1 <0>         0.0001
  41740 WAT       -31.6820  -70.4160   -4.8330 O         1 <0>         0.0000
  41741 WAT       -31.6820  -70.4160   -4.5830 O         1 <0>         0.0000
  41742 WAT       -31.6820  -70.4160   -4.3330 O         1 <0>         0.0000
  41743 WAT       -31.6820  -70.4160   -4.0830 O         1 <0>         0.0000
  41744 WAT       -31.6820  -70.4160   -3.8330 O         1 <0>         0.0000
  41745 WAT       -31.6820  -70.4160   -3.5830 O         1 <0>         0.0000
  41746 WAT       -31.6820  -70.4160   -3.3330 O         1 <0>         0.0000
  41747 WAT       -31.6820  -70.4160   -3.0830 O         1 <0>         0.0000
  41748 WAT       -31.6820  -70.4160   -2.8330 O         1 <0>         0.0000
  41749 WAT       -31.6820  -70.4160   -2.5830 O         1 <0>         0.0000
  41750 WAT       -31.6820  -70.4160   -2.3330 O         1 <0>         0.0000
  41751 WAT       -31.6820  -70.4160   -2.0830 O         1 <0>         0.0000
  41752 WAT       -31.6820  -70.4160   -1.8330 O         1 <0>         0.0000
  41753 WAT       -31.6820  -70.4160   -1.5830 O         1 <0>         0.0000
  41754 WAT       -31.6820  -70.4160   -1.3330 O         1 <0>         0.0000
  41755 WAT       -31.6820  -70.4160   -1.0830 O         1 <0>         0.0000
  41756 WAT       -31.6820  -70.4160   -0.8330 O         1 <0>         0.0000
  41757 WAT       -31.6820  -70.4160   -0.5830 O         1 <0>         0.0000
  41758 WAT       -31.6820  -70.4160   -0.3330 O         1 <0>         0.0000
  41759 WAT       -31.6820  -70.4160   -0.0830 O         1 <0>         0.0000
  41760 WAT       -31.6820  -70.1660   -9.8330 O         1 <0>         0.0000
  41761 WAT       -31.6820  -70.1660   -9.5830 O         1 <0>         0.0000
  41762 WAT       -31.6820  -70.1660   -9.3330 O         1 <0>         0.0000
  41763 WAT       -31.6820  -70.1660   -9.0830 O         1 <0>         0.0000
  41764 WAT       -31.6820  -70.1660   -8.8330 O         1 <0>         0.0001
  41765 WAT       -31.6820  -70.1660   -8.5830 O         1 <0>         0.0002
  41766 WAT       -31.6820  -70.1660   -8.3330 O         1 <0>         0.0002
  41767 WAT       -31.6820  -70.1660   -8.0830 O         1 <0>         0.0002
  41768 WAT       -31.6820  -70.1660   -7.8330 O         1 <0>         0.0002
  41769 WAT       -31.6820  -70.1660   -7.5830 O         1 <0>         0.0002
  41770 WAT       -31.6820  -70.1660   -7.3330 O         1 <0>         0.0002
  41771 WAT       -31.6820  -70.1660   -7.0830 O         1 <0>         0.0003
  41772 WAT       -31.6820  -70.1660   -6.8330 O         1 <0>         0.0010
  41773 WAT       -31.6820  -70.1660   -6.5830 O         1 <0>         0.0032
  41774 WAT       -31.6820  -70.1660   -6.3330 O         1 <0>         0.0056
  41775 WAT       -31.6820  -70.1660   -6.0830 O         1 <0>         0.0059
  41776 WAT       -31.6820  -70.1660   -5.8330 O         1 <0>         0.0036
  41777 WAT       -31.6820  -70.1660   -5.5830 O         1 <0>         0.0014
  41778 WAT       -31.6820  -70.1660   -5.3330 O         1 <0>         0.0003
  41779 WAT       -31.6820  -70.1660   -5.0830 O         1 <0>         0.0001
  41780 WAT       -31.6820  -70.1660   -4.8330 O         1 <0>         0.0000
  41781 WAT       -31.6820  -70.1660   -4.5830 O         1 <0>         0.0000
  41782 WAT       -31.6820  -70.1660   -4.3330 O         1 <0>         0.0000
  41783 WAT       -31.6820  -70.1660   -4.0830 O         1 <0>         0.0000
  41784 WAT       -31.6820  -70.1660   -3.8330 O         1 <0>         0.0000
  41785 WAT       -31.6820  -70.1660   -3.5830 O         1 <0>         0.0000
  41786 WAT       -31.6820  -70.1660   -3.3330 O         1 <0>         0.0000
  41787 WAT       -31.6820  -70.1660   -3.0830 O         1 <0>         0.0000
  41788 WAT       -31.6820  -70.1660   -2.8330 O         1 <0>         0.0000
  41789 WAT       -31.6820  -70.1660   -2.5830 O         1 <0>         0.0000
  41790 WAT       -31.6820  -70.1660   -2.3330 O         1 <0>         0.0000
  41791 WAT       -31.6820  -70.1660   -2.0830 O         1 <0>         0.0000
  41792 WAT       -31.6820  -70.1660   -1.8330 O         1 <0>         0.0000
  41793 WAT       -31.6820  -70.1660   -1.5830 O         1 <0>         0.0000
  41794 WAT       -31.6820  -70.1660   -1.3330 O         1 <0>         0.0000
  41795 WAT       -31.6820  -70.1660   -1.0830 O         1 <0>         0.0000
  41796 WAT       -31.6820  -70.1660   -0.8330 O         1 <0>         0.0000
  41797 WAT       -31.6820  -70.1660   -0.5830 O         1 <0>         0.0000
  41798 WAT       -31.6820  -70.1660   -0.3330 O         1 <0>         0.0000
  41799 WAT       -31.6820  -70.1660   -0.0830 O         1 <0>         0.0000
  41800 WAT       -31.6820  -69.9160   -9.8330 O         1 <0>         0.0000
  41801 WAT       -31.6820  -69.9160   -9.5830 O         1 <0>         0.0000
  41802 WAT       -31.6820  -69.9160   -9.3330 O         1 <0>         0.0000
  41803 WAT       -31.6820  -69.9160   -9.0830 O         1 <0>         0.0001
  41804 WAT       -31.6820  -69.9160   -8.8330 O         1 <0>         0.0002
  41805 WAT       -31.6820  -69.9160   -8.5830 O         1 <0>         0.0003
  41806 WAT       -31.6820  -69.9160   -8.3330 O         1 <0>         0.0004
  41807 WAT       -31.6820  -69.9160   -8.0830 O         1 <0>         0.0003
  41808 WAT       -31.6820  -69.9160   -7.8330 O         1 <0>         0.0002
  41809 WAT       -31.6820  -69.9160   -7.5830 O         1 <0>         0.0002
  41810 WAT       -31.6820  -69.9160   -7.3330 O         1 <0>         0.0004
  41811 WAT       -31.6820  -69.9160   -7.0830 O         1 <0>         0.0005
  41812 WAT       -31.6820  -69.9160   -6.8330 O         1 <0>         0.0009
  41813 WAT       -31.6820  -69.9160   -6.5830 O         1 <0>         0.0018
  41814 WAT       -31.6820  -69.9160   -6.3330 O         1 <0>         0.0029
  41815 WAT       -31.6820  -69.9160   -6.0830 O         1 <0>         0.0028
  41816 WAT       -31.6820  -69.9160   -5.8330 O         1 <0>         0.0018
  41817 WAT       -31.6820  -69.9160   -5.5830 O         1 <0>         0.0008
  41818 WAT       -31.6820  -69.9160   -5.3330 O         1 <0>         0.0002
  41819 WAT       -31.6820  -69.9160   -5.0830 O         1 <0>         0.0001
  41820 WAT       -31.6820  -69.9160   -4.8330 O         1 <0>         0.0000
  41821 WAT       -31.6820  -69.9160   -4.5830 O         1 <0>         0.0000
  41822 WAT       -31.6820  -69.9160   -4.3330 O         1 <0>         0.0000
  41823 WAT       -31.6820  -69.9160   -4.0830 O         1 <0>         0.0000
  41824 WAT       -31.6820  -69.9160   -3.8330 O         1 <0>         0.0000
  41825 WAT       -31.6820  -69.9160   -3.5830 O         1 <0>         0.0000
  41826 WAT       -31.6820  -69.9160   -3.3330 O         1 <0>         0.0000
  41827 WAT       -31.6820  -69.9160   -3.0830 O         1 <0>         0.0000
  41828 WAT       -31.6820  -69.9160   -2.8330 O         1 <0>         0.0000
  41829 WAT       -31.6820  -69.9160   -2.5830 O         1 <0>         0.0000
  41830 WAT       -31.6820  -69.9160   -2.3330 O         1 <0>         0.0000
  41831 WAT       -31.6820  -69.9160   -2.0830 O         1 <0>         0.0000
  41832 WAT       -31.6820  -69.9160   -1.8330 O         1 <0>         0.0000
  41833 WAT       -31.6820  -69.9160   -1.5830 O         1 <0>         0.0000
  41834 WAT       -31.6820  -69.9160   -1.3330 O         1 <0>         0.0000
  41835 WAT       -31.6820  -69.9160   -1.0830 O         1 <0>         0.0000
  41836 WAT       -31.6820  -69.9160   -0.8330 O         1 <0>         0.0000
  41837 WAT       -31.6820  -69.9160   -0.5830 O         1 <0>         0.0000
  41838 WAT       -31.6820  -69.9160   -0.3330 O         1 <0>         0.0000
  41839 WAT       -31.6820  -69.9160   -0.0830 O         1 <0>         0.0000
  41840 WAT       -31.6820  -69.6660   -9.8330 O         1 <0>         0.0000
  41841 WAT       -31.6820  -69.6660   -9.5830 O         1 <0>         0.0000
  41842 WAT       -31.6820  -69.6660   -9.3330 O         1 <0>         0.0000
  41843 WAT       -31.6820  -69.6660   -9.0830 O         1 <0>         0.0001
  41844 WAT       -31.6820  -69.6660   -8.8330 O         1 <0>         0.0002
  41845 WAT       -31.6820  -69.6660   -8.5830 O         1 <0>         0.0004
  41846 WAT       -31.6820  -69.6660   -8.3330 O         1 <0>         0.0005
  41847 WAT       -31.6820  -69.6660   -8.0830 O         1 <0>         0.0005
  41848 WAT       -31.6820  -69.6660   -7.8330 O         1 <0>         0.0006
  41849 WAT       -31.6820  -69.6660   -7.5830 O         1 <0>         0.0012
  41850 WAT       -31.6820  -69.6660   -7.3330 O         1 <0>         0.0021
  41851 WAT       -31.6820  -69.6660   -7.0830 O         1 <0>         0.0024
  41852 WAT       -31.6820  -69.6660   -6.8330 O         1 <0>         0.0022
  41853 WAT       -31.6820  -69.6660   -6.5830 O         1 <0>         0.0020
  41854 WAT       -31.6820  -69.6660   -6.3330 O         1 <0>         0.0020
  41855 WAT       -31.6820  -69.6660   -6.0830 O         1 <0>         0.0019
  41856 WAT       -31.6820  -69.6660   -5.8330 O         1 <0>         0.0013
  41857 WAT       -31.6820  -69.6660   -5.5830 O         1 <0>         0.0007
  41858 WAT       -31.6820  -69.6660   -5.3330 O         1 <0>         0.0002
  41859 WAT       -31.6820  -69.6660   -5.0830 O         1 <0>         0.0001
  41860 WAT       -31.6820  -69.6660   -4.8330 O         1 <0>         0.0000
  41861 WAT       -31.6820  -69.6660   -4.5830 O         1 <0>         0.0000
  41862 WAT       -31.6820  -69.6660   -4.3330 O         1 <0>         0.0000
  41863 WAT       -31.6820  -69.6660   -4.0830 O         1 <0>         0.0000
  41864 WAT       -31.6820  -69.6660   -3.8330 O         1 <0>         0.0000
  41865 WAT       -31.6820  -69.6660   -3.5830 O         1 <0>         0.0000
  41866 WAT       -31.6820  -69.6660   -3.3330 O         1 <0>         0.0000
  41867 WAT       -31.6820  -69.6660   -3.0830 O         1 <0>         0.0000
  41868 WAT       -31.6820  -69.6660   -2.8330 O         1 <0>         0.0000
  41869 WAT       -31.6820  -69.6660   -2.5830 O         1 <0>         0.0000
  41870 WAT       -31.6820  -69.6660   -2.3330 O         1 <0>         0.0000
  41871 WAT       -31.6820  -69.6660   -2.0830 O         1 <0>         0.0000
  41872 WAT       -31.6820  -69.6660   -1.8330 O         1 <0>         0.0000
  41873 WAT       -31.6820  -69.6660   -1.5830 O         1 <0>         0.0000
  41874 WAT       -31.6820  -69.6660   -1.3330 O         1 <0>         0.0000
  41875 WAT       -31.6820  -69.6660   -1.0830 O         1 <0>         0.0000
  41876 WAT       -31.6820  -69.6660   -0.8330 O         1 <0>         0.0000
  41877 WAT       -31.6820  -69.6660   -0.5830 O         1 <0>         0.0000
  41878 WAT       -31.6820  -69.6660   -0.3330 O         1 <0>         0.0000
  41879 WAT       -31.6820  -69.6660   -0.0830 O         1 <0>         0.0000
  41880 WAT       -31.6820  -69.4160   -9.8330 O         1 <0>         0.0000
  41881 WAT       -31.6820  -69.4160   -9.5830 O         1 <0>         0.0000
  41882 WAT       -31.6820  -69.4160   -9.3330 O         1 <0>         0.0000
  41883 WAT       -31.6820  -69.4160   -9.0830 O         1 <0>         0.0001
  41884 WAT       -31.6820  -69.4160   -8.8330 O         1 <0>         0.0002
  41885 WAT       -31.6820  -69.4160   -8.5830 O         1 <0>         0.0004
  41886 WAT       -31.6820  -69.4160   -8.3330 O         1 <0>         0.0006
  41887 WAT       -31.6820  -69.4160   -8.0830 O         1 <0>         0.0008
  41888 WAT       -31.6820  -69.4160   -7.8330 O         1 <0>         0.0017
  41889 WAT       -31.6820  -69.4160   -7.5830 O         1 <0>         0.0040
  41890 WAT       -31.6820  -69.4160   -7.3330 O         1 <0>         0.0065
  41891 WAT       -31.6820  -69.4160   -7.0830 O         1 <0>         0.0071
  41892 WAT       -31.6820  -69.4160   -6.8330 O         1 <0>         0.0056
  41893 WAT       -31.6820  -69.4160   -6.5830 O         1 <0>         0.0036
  41894 WAT       -31.6820  -69.4160   -6.3330 O         1 <0>         0.0023
  41895 WAT       -31.6820  -69.4160   -6.0830 O         1 <0>         0.0017
  41896 WAT       -31.6820  -69.4160   -5.8330 O         1 <0>         0.0012
  41897 WAT       -31.6820  -69.4160   -5.5830 O         1 <0>         0.0006
  41898 WAT       -31.6820  -69.4160   -5.3330 O         1 <0>         0.0002
  41899 WAT       -31.6820  -69.4160   -5.0830 O         1 <0>         0.0000
  41900 WAT       -31.6820  -69.4160   -4.8330 O         1 <0>         0.0000
  41901 WAT       -31.6820  -69.4160   -4.5830 O         1 <0>         0.0000
  41902 WAT       -31.6820  -69.4160   -4.3330 O         1 <0>         0.0000
  41903 WAT       -31.6820  -69.4160   -4.0830 O         1 <0>         0.0000
  41904 WAT       -31.6820  -69.4160   -3.8330 O         1 <0>         0.0000
  41905 WAT       -31.6820  -69.4160   -3.5830 O         1 <0>         0.0000
  41906 WAT       -31.6820  -69.4160   -3.3330 O         1 <0>         0.0000
  41907 WAT       -31.6820  -69.4160   -3.0830 O         1 <0>         0.0000
  41908 WAT       -31.6820  -69.4160   -2.8330 O         1 <0>         0.0000
  41909 WAT       -31.6820  -69.4160   -2.5830 O         1 <0>         0.0000
  41910 WAT       -31.6820  -69.4160   -2.3330 O         1 <0>         0.0000
  41911 WAT       -31.6820  -69.4160   -2.0830 O         1 <0>         0.0000
  41912 WAT       -31.6820  -69.4160   -1.8330 O         1 <0>         0.0000
  41913 WAT       -31.6820  -69.4160   -1.5830 O         1 <0>         0.0000
  41914 WAT       -31.6820  -69.4160   -1.3330 O         1 <0>         0.0000
  41915 WAT       -31.6820  -69.4160   -1.0830 O         1 <0>         0.0000
  41916 WAT       -31.6820  -69.4160   -0.8330 O         1 <0>         0.0000
  41917 WAT       -31.6820  -69.4160   -0.5830 O         1 <0>         0.0000
  41918 WAT       -31.6820  -69.4160   -0.3330 O         1 <0>         0.0000
  41919 WAT       -31.6820  -69.4160   -0.0830 O         1 <0>         0.0000
  41920 WAT       -31.6820  -69.1660   -9.8330 O         1 <0>         0.0000
  41921 WAT       -31.6820  -69.1660   -9.5830 O         1 <0>         0.0000
  41922 WAT       -31.6820  -69.1660   -9.3330 O         1 <0>         0.0000
  41923 WAT       -31.6820  -69.1660   -9.0830 O         1 <0>         0.0000
  41924 WAT       -31.6820  -69.1660   -8.8330 O         1 <0>         0.0002
  41925 WAT       -31.6820  -69.1660   -8.5830 O         1 <0>         0.0003
  41926 WAT       -31.6820  -69.1660   -8.3330 O         1 <0>         0.0005
  41927 WAT       -31.6820  -69.1660   -8.0830 O         1 <0>         0.0010
  41928 WAT       -31.6820  -69.1660   -7.8330 O         1 <0>         0.0029
  41929 WAT       -31.6820  -69.1660   -7.5830 O         1 <0>         0.0068
  41930 WAT       -31.6820  -69.1660   -7.3330 O         1 <0>         0.0109
  41931 WAT       -31.6820  -69.1660   -7.0830 O         1 <0>         0.0118
  41932 WAT       -31.6820  -69.1660   -6.8330 O         1 <0>         0.0090
  41933 WAT       -31.6820  -69.1660   -6.5830 O         1 <0>         0.0051
  41934 WAT       -31.6820  -69.1660   -6.3330 O         1 <0>         0.0027
  41935 WAT       -31.6820  -69.1660   -6.0830 O         1 <0>         0.0016
  41936 WAT       -31.6820  -69.1660   -5.8330 O         1 <0>         0.0011
  41937 WAT       -31.6820  -69.1660   -5.5830 O         1 <0>         0.0006
  41938 WAT       -31.6820  -69.1660   -5.3330 O         1 <0>         0.0002
  41939 WAT       -31.6820  -69.1660   -5.0830 O         1 <0>         0.0000
  41940 WAT       -31.6820  -69.1660   -4.8330 O         1 <0>         0.0000
  41941 WAT       -31.6820  -69.1660   -4.5830 O         1 <0>         0.0000
  41942 WAT       -31.6820  -69.1660   -4.3330 O         1 <0>         0.0000
  41943 WAT       -31.6820  -69.1660   -4.0830 O         1 <0>         0.0000
  41944 WAT       -31.6820  -69.1660   -3.8330 O         1 <0>         0.0000
  41945 WAT       -31.6820  -69.1660   -3.5830 O         1 <0>         0.0000
  41946 WAT       -31.6820  -69.1660   -3.3330 O         1 <0>         0.0000
  41947 WAT       -31.6820  -69.1660   -3.0830 O         1 <0>         0.0000
  41948 WAT       -31.6820  -69.1660   -2.8330 O         1 <0>         0.0000
  41949 WAT       -31.6820  -69.1660   -2.5830 O         1 <0>         0.0000
  41950 WAT       -31.6820  -69.1660   -2.3330 O         1 <0>         0.0000
  41951 WAT       -31.6820  -69.1660   -2.0830 O         1 <0>         0.0000
  41952 WAT       -31.6820  -69.1660   -1.8330 O         1 <0>         0.0000
  41953 WAT       -31.6820  -69.1660   -1.5830 O         1 <0>         0.0000
  41954 WAT       -31.6820  -69.1660   -1.3330 O         1 <0>         0.0000
  41955 WAT       -31.6820  -69.1660   -1.0830 O         1 <0>         0.0000
  41956 WAT       -31.6820  -69.1660   -0.8330 O         1 <0>         0.0000
  41957 WAT       -31.6820  -69.1660   -0.5830 O         1 <0>         0.0000
  41958 WAT       -31.6820  -69.1660   -0.3330 O         1 <0>         0.0000
  41959 WAT       -31.6820  -69.1660   -0.0830 O         1 <0>         0.0000
  41960 WAT       -31.6820  -68.9160   -9.8330 O         1 <0>         0.0000
  41961 WAT       -31.6820  -68.9160   -9.5830 O         1 <0>         0.0000
  41962 WAT       -31.6820  -68.9160   -9.3330 O         1 <0>         0.0000
  41963 WAT       -31.6820  -68.9160   -9.0830 O         1 <0>         0.0000
  41964 WAT       -31.6820  -68.9160   -8.8330 O         1 <0>         0.0001
  41965 WAT       -31.6820  -68.9160   -8.5830 O         1 <0>         0.0002
  41966 WAT       -31.6820  -68.9160   -8.3330 O         1 <0>         0.0003
  41967 WAT       -31.6820  -68.9160   -8.0830 O         1 <0>         0.0008
  41968 WAT       -31.6820  -68.9160   -7.8330 O         1 <0>         0.0027
  41969 WAT       -31.6820  -68.9160   -7.5830 O         1 <0>         0.0066
  41970 WAT       -31.6820  -68.9160   -7.3330 O         1 <0>         0.0106
  41971 WAT       -31.6820  -68.9160   -7.0830 O         1 <0>         0.0114
  41972 WAT       -31.6820  -68.9160   -6.8330 O         1 <0>         0.0086
  41973 WAT       -31.6820  -68.9160   -6.5830 O         1 <0>         0.0047
  41974 WAT       -31.6820  -68.9160   -6.3330 O         1 <0>         0.0022
  41975 WAT       -31.6820  -68.9160   -6.0830 O         1 <0>         0.0012
  41976 WAT       -31.6820  -68.9160   -5.8330 O         1 <0>         0.0008
  41977 WAT       -31.6820  -68.9160   -5.5830 O         1 <0>         0.0004
  41978 WAT       -31.6820  -68.9160   -5.3330 O         1 <0>         0.0001
  41979 WAT       -31.6820  -68.9160   -5.0830 O         1 <0>         0.0000
  41980 WAT       -31.6820  -68.9160   -4.8330 O         1 <0>         0.0000
  41981 WAT       -31.6820  -68.9160   -4.5830 O         1 <0>         0.0000
  41982 WAT       -31.6820  -68.9160   -4.3330 O         1 <0>         0.0000
  41983 WAT       -31.6820  -68.9160   -4.0830 O         1 <0>         0.0000
  41984 WAT       -31.6820  -68.9160   -3.8330 O         1 <0>         0.0000
  41985 WAT       -31.6820  -68.9160   -3.5830 O         1 <0>         0.0000
  41986 WAT       -31.6820  -68.9160   -3.3330 O         1 <0>         0.0000
  41987 WAT       -31.6820  -68.9160   -3.0830 O         1 <0>         0.0000
  41988 WAT       -31.6820  -68.9160   -2.8330 O         1 <0>         0.0000
  41989 WAT       -31.6820  -68.9160   -2.5830 O         1 <0>         0.0000
  41990 WAT       -31.6820  -68.9160   -2.3330 O         1 <0>         0.0000
  41991 WAT       -31.6820  -68.9160   -2.0830 O         1 <0>         0.0000
  41992 WAT       -31.6820  -68.9160   -1.8330 O         1 <0>         0.0000
  41993 WAT       -31.6820  -68.9160   -1.5830 O         1 <0>         0.0000
  41994 WAT       -31.6820  -68.9160   -1.3330 O         1 <0>         0.0000
  41995 WAT       -31.6820  -68.9160   -1.0830 O         1 <0>         0.0000
  41996 WAT       -31.6820  -68.9160   -0.8330 O         1 <0>         0.0000
  41997 WAT       -31.6820  -68.9160   -0.5830 O         1 <0>         0.0000
  41998 WAT       -31.6820  -68.9160   -0.3330 O         1 <0>         0.0000
  41999 WAT       -31.6820  -68.9160   -0.0830 O         1 <0>         0.0000
  42000 WAT       -31.4320  -77.4160   -9.8330 O         1 <0>         0.0000
  42001 WAT       -31.4320  -77.4160   -9.5830 O         1 <0>         0.0000
  42002 WAT       -31.4320  -77.4160   -9.3330 O         1 <0>         0.0000
  42003 WAT       -31.4320  -77.4160   -9.0830 O         1 <0>         0.0000
  42004 WAT       -31.4320  -77.4160   -8.8330 O         1 <0>         0.0000
  42005 WAT       -31.4320  -77.4160   -8.5830 O         1 <0>         0.0000
  42006 WAT       -31.4320  -77.4160   -8.3330 O         1 <0>         0.0000
  42007 WAT       -31.4320  -77.4160   -8.0830 O         1 <0>         0.0000
  42008 WAT       -31.4320  -77.4160   -7.8330 O         1 <0>         0.0000
  42009 WAT       -31.4320  -77.4160   -7.5830 O         1 <0>         0.0000
  42010 WAT       -31.4320  -77.4160   -7.3330 O         1 <0>         0.0000
  42011 WAT       -31.4320  -77.4160   -7.0830 O         1 <0>         0.0000
  42012 WAT       -31.4320  -77.4160   -6.8330 O         1 <0>         0.0000
  42013 WAT       -31.4320  -77.4160   -6.5830 O         1 <0>         0.0000
  42014 WAT       -31.4320  -77.4160   -6.3330 O         1 <0>         0.0000
  42015 WAT       -31.4320  -77.4160   -6.0830 O         1 <0>         0.0000
  42016 WAT       -31.4320  -77.4160   -5.8330 O         1 <0>         0.0000
  42017 WAT       -31.4320  -77.4160   -5.5830 O         1 <0>         0.0000
  42018 WAT       -31.4320  -77.4160   -5.3330 O         1 <0>         0.0000
  42019 WAT       -31.4320  -77.4160   -5.0830 O         1 <0>         0.0000
  42020 WAT       -31.4320  -77.4160   -4.8330 O         1 <0>         0.0000
  42021 WAT       -31.4320  -77.4160   -4.5830 O         1 <0>         0.0000
  42022 WAT       -31.4320  -77.4160   -4.3330 O         1 <0>         0.0000
  42023 WAT       -31.4320  -77.4160   -4.0830 O         1 <0>         0.0000
  42024 WAT       -31.4320  -77.4160   -3.8330 O         1 <0>         0.0000
  42025 WAT       -31.4320  -77.4160   -3.5830 O         1 <0>         0.0000
  42026 WAT       -31.4320  -77.4160   -3.3330 O         1 <0>         0.0000
  42027 WAT       -31.4320  -77.4160   -3.0830 O         1 <0>         0.0000
  42028 WAT       -31.4320  -77.4160   -2.8330 O         1 <0>         0.0000
  42029 WAT       -31.4320  -77.4160   -2.5830 O         1 <0>         0.0000
  42030 WAT       -31.4320  -77.4160   -2.3330 O         1 <0>         0.0000
  42031 WAT       -31.4320  -77.4160   -2.0830 O         1 <0>         0.0000
  42032 WAT       -31.4320  -77.4160   -1.8330 O         1 <0>         0.0000
  42033 WAT       -31.4320  -77.4160   -1.5830 O         1 <0>         0.0000
  42034 WAT       -31.4320  -77.4160   -1.3330 O         1 <0>         0.0000
  42035 WAT       -31.4320  -77.4160   -1.0830 O         1 <0>         0.0000
  42036 WAT       -31.4320  -77.4160   -0.8330 O         1 <0>         0.0000
  42037 WAT       -31.4320  -77.4160   -0.5830 O         1 <0>         0.0000
  42038 WAT       -31.4320  -77.4160   -0.3330 O         1 <0>         0.0000
  42039 WAT       -31.4320  -77.4160   -0.0830 O         1 <0>         0.0000
  42040 WAT       -31.4320  -77.1660   -9.8330 O         1 <0>         0.0000
  42041 WAT       -31.4320  -77.1660   -9.5830 O         1 <0>         0.0000
  42042 WAT       -31.4320  -77.1660   -9.3330 O         1 <0>         0.0000
  42043 WAT       -31.4320  -77.1660   -9.0830 O         1 <0>         0.0000
  42044 WAT       -31.4320  -77.1660   -8.8330 O         1 <0>         0.0000
  42045 WAT       -31.4320  -77.1660   -8.5830 O         1 <0>         0.0000
  42046 WAT       -31.4320  -77.1660   -8.3330 O         1 <0>         0.0000
  42047 WAT       -31.4320  -77.1660   -8.0830 O         1 <0>         0.0000
  42048 WAT       -31.4320  -77.1660   -7.8330 O         1 <0>         0.0000
  42049 WAT       -31.4320  -77.1660   -7.5830 O         1 <0>         0.0000
  42050 WAT       -31.4320  -77.1660   -7.3330 O         1 <0>         0.0000
  42051 WAT       -31.4320  -77.1660   -7.0830 O         1 <0>         0.0000
  42052 WAT       -31.4320  -77.1660   -6.8330 O         1 <0>         0.0000
  42053 WAT       -31.4320  -77.1660   -6.5830 O         1 <0>         0.0000
  42054 WAT       -31.4320  -77.1660   -6.3330 O         1 <0>         0.0000
  42055 WAT       -31.4320  -77.1660   -6.0830 O         1 <0>         0.0000
  42056 WAT       -31.4320  -77.1660   -5.8330 O         1 <0>         0.0000
  42057 WAT       -31.4320  -77.1660   -5.5830 O         1 <0>         0.0000
  42058 WAT       -31.4320  -77.1660   -5.3330 O         1 <0>         0.0000
  42059 WAT       -31.4320  -77.1660   -5.0830 O         1 <0>         0.0000
  42060 WAT       -31.4320  -77.1660   -4.8330 O         1 <0>         0.0000
  42061 WAT       -31.4320  -77.1660   -4.5830 O         1 <0>         0.0000
  42062 WAT       -31.4320  -77.1660   -4.3330 O         1 <0>         0.0000
  42063 WAT       -31.4320  -77.1660   -4.0830 O         1 <0>         0.0000
  42064 WAT       -31.4320  -77.1660   -3.8330 O         1 <0>         0.0000
  42065 WAT       -31.4320  -77.1660   -3.5830 O         1 <0>         0.0000
  42066 WAT       -31.4320  -77.1660   -3.3330 O         1 <0>         0.0000
  42067 WAT       -31.4320  -77.1660   -3.0830 O         1 <0>         0.0000
  42068 WAT       -31.4320  -77.1660   -2.8330 O         1 <0>         0.0000
  42069 WAT       -31.4320  -77.1660   -2.5830 O         1 <0>         0.0000
  42070 WAT       -31.4320  -77.1660   -2.3330 O         1 <0>         0.0000
  42071 WAT       -31.4320  -77.1660   -2.0830 O         1 <0>         0.0000
  42072 WAT       -31.4320  -77.1660   -1.8330 O         1 <0>         0.0000
  42073 WAT       -31.4320  -77.1660   -1.5830 O         1 <0>         0.0000
  42074 WAT       -31.4320  -77.1660   -1.3330 O         1 <0>         0.0000
  42075 WAT       -31.4320  -77.1660   -1.0830 O         1 <0>         0.0000
  42076 WAT       -31.4320  -77.1660   -0.8330 O         1 <0>         0.0000
  42077 WAT       -31.4320  -77.1660   -0.5830 O         1 <0>         0.0000
  42078 WAT       -31.4320  -77.1660   -0.3330 O         1 <0>         0.0000
  42079 WAT       -31.4320  -77.1660   -0.0830 O         1 <0>         0.0000
  42080 WAT       -31.4320  -76.9160   -9.8330 O         1 <0>         0.0000
  42081 WAT       -31.4320  -76.9160   -9.5830 O         1 <0>         0.0000
  42082 WAT       -31.4320  -76.9160   -9.3330 O         1 <0>         0.0000
  42083 WAT       -31.4320  -76.9160   -9.0830 O         1 <0>         0.0000
  42084 WAT       -31.4320  -76.9160   -8.8330 O         1 <0>         0.0000
  42085 WAT       -31.4320  -76.9160   -8.5830 O         1 <0>         0.0000
  42086 WAT       -31.4320  -76.9160   -8.3330 O         1 <0>         0.0000
  42087 WAT       -31.4320  -76.9160   -8.0830 O         1 <0>         0.0000
  42088 WAT       -31.4320  -76.9160   -7.8330 O         1 <0>         0.0000
  42089 WAT       -31.4320  -76.9160   -7.5830 O         1 <0>         0.0000
  42090 WAT       -31.4320  -76.9160   -7.3330 O         1 <0>         0.0000
  42091 WAT       -31.4320  -76.9160   -7.0830 O         1 <0>         0.0000
  42092 WAT       -31.4320  -76.9160   -6.8330 O         1 <0>         0.0000
  42093 WAT       -31.4320  -76.9160   -6.5830 O         1 <0>         0.0000
  42094 WAT       -31.4320  -76.9160   -6.3330 O         1 <0>         0.0000
  42095 WAT       -31.4320  -76.9160   -6.0830 O         1 <0>         0.0000
  42096 WAT       -31.4320  -76.9160   -5.8330 O         1 <0>         0.0000
  42097 WAT       -31.4320  -76.9160   -5.5830 O         1 <0>         0.0000
  42098 WAT       -31.4320  -76.9160   -5.3330 O         1 <0>         0.0000
  42099 WAT       -31.4320  -76.9160   -5.0830 O         1 <0>         0.0000
  42100 WAT       -31.4320  -76.9160   -4.8330 O         1 <0>         0.0000
  42101 WAT       -31.4320  -76.9160   -4.5830 O         1 <0>         0.0000
  42102 WAT       -31.4320  -76.9160   -4.3330 O         1 <0>         0.0000
  42103 WAT       -31.4320  -76.9160   -4.0830 O         1 <0>         0.0000
  42104 WAT       -31.4320  -76.9160   -3.8330 O         1 <0>         0.0000
  42105 WAT       -31.4320  -76.9160   -3.5830 O         1 <0>         0.0000
  42106 WAT       -31.4320  -76.9160   -3.3330 O         1 <0>         0.0000
  42107 WAT       -31.4320  -76.9160   -3.0830 O         1 <0>         0.0000
  42108 WAT       -31.4320  -76.9160   -2.8330 O         1 <0>         0.0000
  42109 WAT       -31.4320  -76.9160   -2.5830 O         1 <0>         0.0000
  42110 WAT       -31.4320  -76.9160   -2.3330 O         1 <0>         0.0000
  42111 WAT       -31.4320  -76.9160   -2.0830 O         1 <0>         0.0000
  42112 WAT       -31.4320  -76.9160   -1.8330 O         1 <0>         0.0000
  42113 WAT       -31.4320  -76.9160   -1.5830 O         1 <0>         0.0000
  42114 WAT       -31.4320  -76.9160   -1.3330 O         1 <0>         0.0000
  42115 WAT       -31.4320  -76.9160   -1.0830 O         1 <0>         0.0000
  42116 WAT       -31.4320  -76.9160   -0.8330 O         1 <0>         0.0000
  42117 WAT       -31.4320  -76.9160   -0.5830 O         1 <0>         0.0000
  42118 WAT       -31.4320  -76.9160   -0.3330 O         1 <0>         0.0000
  42119 WAT       -31.4320  -76.9160   -0.0830 O         1 <0>         0.0000
  42120 WAT       -31.4320  -76.6660   -9.8330 O         1 <0>         0.0000
  42121 WAT       -31.4320  -76.6660   -9.5830 O         1 <0>         0.0000
  42122 WAT       -31.4320  -76.6660   -9.3330 O         1 <0>         0.0000
  42123 WAT       -31.4320  -76.6660   -9.0830 O         1 <0>         0.0000
  42124 WAT       -31.4320  -76.6660   -8.8330 O         1 <0>         0.0000
  42125 WAT       -31.4320  -76.6660   -8.5830 O         1 <0>         0.0000
  42126 WAT       -31.4320  -76.6660   -8.3330 O         1 <0>         0.0000
  42127 WAT       -31.4320  -76.6660   -8.0830 O         1 <0>         0.0000
  42128 WAT       -31.4320  -76.6660   -7.8330 O         1 <0>         0.0000
  42129 WAT       -31.4320  -76.6660   -7.5830 O         1 <0>         0.0000
  42130 WAT       -31.4320  -76.6660   -7.3330 O         1 <0>         0.0000
  42131 WAT       -31.4320  -76.6660   -7.0830 O         1 <0>         0.0000
  42132 WAT       -31.4320  -76.6660   -6.8330 O         1 <0>         0.0000
  42133 WAT       -31.4320  -76.6660   -6.5830 O         1 <0>         0.0000
  42134 WAT       -31.4320  -76.6660   -6.3330 O         1 <0>         0.0000
  42135 WAT       -31.4320  -76.6660   -6.0830 O         1 <0>         0.0000
  42136 WAT       -31.4320  -76.6660   -5.8330 O         1 <0>         0.0000
  42137 WAT       -31.4320  -76.6660   -5.5830 O         1 <0>         0.0000
  42138 WAT       -31.4320  -76.6660   -5.3330 O         1 <0>         0.0000
  42139 WAT       -31.4320  -76.6660   -5.0830 O         1 <0>         0.0000
  42140 WAT       -31.4320  -76.6660   -4.8330 O         1 <0>         0.0000
  42141 WAT       -31.4320  -76.6660   -4.5830 O         1 <0>         0.0000
  42142 WAT       -31.4320  -76.6660   -4.3330 O         1 <0>         0.0000
  42143 WAT       -31.4320  -76.6660   -4.0830 O         1 <0>         0.0000
  42144 WAT       -31.4320  -76.6660   -3.8330 O         1 <0>         0.0000
  42145 WAT       -31.4320  -76.6660   -3.5830 O         1 <0>         0.0000
  42146 WAT       -31.4320  -76.6660   -3.3330 O         1 <0>         0.0000
  42147 WAT       -31.4320  -76.6660   -3.0830 O         1 <0>         0.0000
  42148 WAT       -31.4320  -76.6660   -2.8330 O         1 <0>         0.0000
  42149 WAT       -31.4320  -76.6660   -2.5830 O         1 <0>         0.0000
  42150 WAT       -31.4320  -76.6660   -2.3330 O         1 <0>         0.0000
  42151 WAT       -31.4320  -76.6660   -2.0830 O         1 <0>         0.0000
  42152 WAT       -31.4320  -76.6660   -1.8330 O         1 <0>         0.0000
  42153 WAT       -31.4320  -76.6660   -1.5830 O         1 <0>         0.0000
  42154 WAT       -31.4320  -76.6660   -1.3330 O         1 <0>         0.0000
  42155 WAT       -31.4320  -76.6660   -1.0830 O         1 <0>         0.0000
  42156 WAT       -31.4320  -76.6660   -0.8330 O         1 <0>         0.0000
  42157 WAT       -31.4320  -76.6660   -0.5830 O         1 <0>         0.0000
  42158 WAT       -31.4320  -76.6660   -0.3330 O         1 <0>         0.0000
  42159 WAT       -31.4320  -76.6660   -0.0830 O         1 <0>         0.0000
  42160 WAT       -31.4320  -76.4160   -9.8330 O         1 <0>         0.0000
  42161 WAT       -31.4320  -76.4160   -9.5830 O         1 <0>         0.0000
  42162 WAT       -31.4320  -76.4160   -9.3330 O         1 <0>         0.0000
  42163 WAT       -31.4320  -76.4160   -9.0830 O         1 <0>         0.0000
  42164 WAT       -31.4320  -76.4160   -8.8330 O         1 <0>         0.0000
  42165 WAT       -31.4320  -76.4160   -8.5830 O         1 <0>         0.0000
  42166 WAT       -31.4320  -76.4160   -8.3330 O         1 <0>         0.0000
  42167 WAT       -31.4320  -76.4160   -8.0830 O         1 <0>         0.0000
  42168 WAT       -31.4320  -76.4160   -7.8330 O         1 <0>         0.0000
  42169 WAT       -31.4320  -76.4160   -7.5830 O         1 <0>         0.0000
  42170 WAT       -31.4320  -76.4160   -7.3330 O         1 <0>         0.0000
  42171 WAT       -31.4320  -76.4160   -7.0830 O         1 <0>         0.0000
  42172 WAT       -31.4320  -76.4160   -6.8330 O         1 <0>         0.0000
  42173 WAT       -31.4320  -76.4160   -6.5830 O         1 <0>         0.0000
  42174 WAT       -31.4320  -76.4160   -6.3330 O         1 <0>         0.0000
  42175 WAT       -31.4320  -76.4160   -6.0830 O         1 <0>         0.0000
  42176 WAT       -31.4320  -76.4160   -5.8330 O         1 <0>         0.0000
  42177 WAT       -31.4320  -76.4160   -5.5830 O         1 <0>         0.0000
  42178 WAT       -31.4320  -76.4160   -5.3330 O         1 <0>         0.0000
  42179 WAT       -31.4320  -76.4160   -5.0830 O         1 <0>         0.0000
  42180 WAT       -31.4320  -76.4160   -4.8330 O         1 <0>         0.0000
  42181 WAT       -31.4320  -76.4160   -4.5830 O         1 <0>         0.0000
  42182 WAT       -31.4320  -76.4160   -4.3330 O         1 <0>         0.0000
  42183 WAT       -31.4320  -76.4160   -4.0830 O         1 <0>         0.0000
  42184 WAT       -31.4320  -76.4160   -3.8330 O         1 <0>         0.0000
  42185 WAT       -31.4320  -76.4160   -3.5830 O         1 <0>         0.0000
  42186 WAT       -31.4320  -76.4160   -3.3330 O         1 <0>         0.0000
  42187 WAT       -31.4320  -76.4160   -3.0830 O         1 <0>         0.0000
  42188 WAT       -31.4320  -76.4160   -2.8330 O         1 <0>         0.0000
  42189 WAT       -31.4320  -76.4160   -2.5830 O         1 <0>         0.0000
  42190 WAT       -31.4320  -76.4160   -2.3330 O         1 <0>         0.0000
  42191 WAT       -31.4320  -76.4160   -2.0830 O         1 <0>         0.0000
  42192 WAT       -31.4320  -76.4160   -1.8330 O         1 <0>         0.0000
  42193 WAT       -31.4320  -76.4160   -1.5830 O         1 <0>         0.0000
  42194 WAT       -31.4320  -76.4160   -1.3330 O         1 <0>         0.0000
  42195 WAT       -31.4320  -76.4160   -1.0830 O         1 <0>         0.0000
  42196 WAT       -31.4320  -76.4160   -0.8330 O         1 <0>         0.0000
  42197 WAT       -31.4320  -76.4160   -0.5830 O         1 <0>         0.0000
  42198 WAT       -31.4320  -76.4160   -0.3330 O         1 <0>         0.0000
  42199 WAT       -31.4320  -76.4160   -0.0830 O         1 <0>         0.0000
  42200 WAT       -31.4320  -76.1660   -9.8330 O         1 <0>         0.0000
  42201 WAT       -31.4320  -76.1660   -9.5830 O         1 <0>         0.0000
  42202 WAT       -31.4320  -76.1660   -9.3330 O         1 <0>         0.0000
  42203 WAT       -31.4320  -76.1660   -9.0830 O         1 <0>         0.0000
  42204 WAT       -31.4320  -76.1660   -8.8330 O         1 <0>         0.0000
  42205 WAT       -31.4320  -76.1660   -8.5830 O         1 <0>         0.0000
  42206 WAT       -31.4320  -76.1660   -8.3330 O         1 <0>         0.0000
  42207 WAT       -31.4320  -76.1660   -8.0830 O         1 <0>         0.0000
  42208 WAT       -31.4320  -76.1660   -7.8330 O         1 <0>         0.0000
  42209 WAT       -31.4320  -76.1660   -7.5830 O         1 <0>         0.0000
  42210 WAT       -31.4320  -76.1660   -7.3330 O         1 <0>         0.0000
  42211 WAT       -31.4320  -76.1660   -7.0830 O         1 <0>         0.0000
  42212 WAT       -31.4320  -76.1660   -6.8330 O         1 <0>         0.0000
  42213 WAT       -31.4320  -76.1660   -6.5830 O         1 <0>         0.0000
  42214 WAT       -31.4320  -76.1660   -6.3330 O         1 <0>         0.0000
  42215 WAT       -31.4320  -76.1660   -6.0830 O         1 <0>         0.0000
  42216 WAT       -31.4320  -76.1660   -5.8330 O         1 <0>         0.0000
  42217 WAT       -31.4320  -76.1660   -5.5830 O         1 <0>         0.0000
  42218 WAT       -31.4320  -76.1660   -5.3330 O         1 <0>         0.0000
  42219 WAT       -31.4320  -76.1660   -5.0830 O         1 <0>         0.0000
  42220 WAT       -31.4320  -76.1660   -4.8330 O         1 <0>         0.0000
  42221 WAT       -31.4320  -76.1660   -4.5830 O         1 <0>         0.0000
  42222 WAT       -31.4320  -76.1660   -4.3330 O         1 <0>         0.0000
  42223 WAT       -31.4320  -76.1660   -4.0830 O         1 <0>         0.0000
  42224 WAT       -31.4320  -76.1660   -3.8330 O         1 <0>         0.0000
  42225 WAT       -31.4320  -76.1660   -3.5830 O         1 <0>         0.0000
  42226 WAT       -31.4320  -76.1660   -3.3330 O         1 <0>         0.0000
  42227 WAT       -31.4320  -76.1660   -3.0830 O         1 <0>         0.0000
  42228 WAT       -31.4320  -76.1660   -2.8330 O         1 <0>         0.0000
  42229 WAT       -31.4320  -76.1660   -2.5830 O         1 <0>         0.0000
  42230 WAT       -31.4320  -76.1660   -2.3330 O         1 <0>         0.0000
  42231 WAT       -31.4320  -76.1660   -2.0830 O         1 <0>         0.0000
  42232 WAT       -31.4320  -76.1660   -1.8330 O         1 <0>         0.0000
  42233 WAT       -31.4320  -76.1660   -1.5830 O         1 <0>         0.0000
  42234 WAT       -31.4320  -76.1660   -1.3330 O         1 <0>         0.0000
  42235 WAT       -31.4320  -76.1660   -1.0830 O         1 <0>         0.0000
  42236 WAT       -31.4320  -76.1660   -0.8330 O         1 <0>         0.0000
  42237 WAT       -31.4320  -76.1660   -0.5830 O         1 <0>         0.0000
  42238 WAT       -31.4320  -76.1660   -0.3330 O         1 <0>         0.0000
  42239 WAT       -31.4320  -76.1660   -0.0830 O         1 <0>         0.0000
  42240 WAT       -31.4320  -75.9160   -9.8330 O         1 <0>         0.0000
  42241 WAT       -31.4320  -75.9160   -9.5830 O         1 <0>         0.0000
  42242 WAT       -31.4320  -75.9160   -9.3330 O         1 <0>         0.0000
  42243 WAT       -31.4320  -75.9160   -9.0830 O         1 <0>         0.0000
  42244 WAT       -31.4320  -75.9160   -8.8330 O         1 <0>         0.0000
  42245 WAT       -31.4320  -75.9160   -8.5830 O         1 <0>         0.0000
  42246 WAT       -31.4320  -75.9160   -8.3330 O         1 <0>         0.0000
  42247 WAT       -31.4320  -75.9160   -8.0830 O         1 <0>         0.0000
  42248 WAT       -31.4320  -75.9160   -7.8330 O         1 <0>         0.0000
  42249 WAT       -31.4320  -75.9160   -7.5830 O         1 <0>         0.0000
  42250 WAT       -31.4320  -75.9160   -7.3330 O         1 <0>         0.0000
  42251 WAT       -31.4320  -75.9160   -7.0830 O         1 <0>         0.0000
  42252 WAT       -31.4320  -75.9160   -6.8330 O         1 <0>         0.0000
  42253 WAT       -31.4320  -75.9160   -6.5830 O         1 <0>         0.0000
  42254 WAT       -31.4320  -75.9160   -6.3330 O         1 <0>         0.0000
  42255 WAT       -31.4320  -75.9160   -6.0830 O         1 <0>         0.0000
  42256 WAT       -31.4320  -75.9160   -5.8330 O         1 <0>         0.0000
  42257 WAT       -31.4320  -75.9160   -5.5830 O         1 <0>         0.0000
  42258 WAT       -31.4320  -75.9160   -5.3330 O         1 <0>         0.0000
  42259 WAT       -31.4320  -75.9160   -5.0830 O         1 <0>         0.0000
  42260 WAT       -31.4320  -75.9160   -4.8330 O         1 <0>         0.0000
  42261 WAT       -31.4320  -75.9160   -4.5830 O         1 <0>         0.0000
  42262 WAT       -31.4320  -75.9160   -4.3330 O         1 <0>         0.0000
  42263 WAT       -31.4320  -75.9160   -4.0830 O         1 <0>         0.0000
  42264 WAT       -31.4320  -75.9160   -3.8330 O         1 <0>         0.0000
  42265 WAT       -31.4320  -75.9160   -3.5830 O         1 <0>         0.0000
  42266 WAT       -31.4320  -75.9160   -3.3330 O         1 <0>         0.0000
  42267 WAT       -31.4320  -75.9160   -3.0830 O         1 <0>         0.0000
  42268 WAT       -31.4320  -75.9160   -2.8330 O         1 <0>         0.0000
  42269 WAT       -31.4320  -75.9160   -2.5830 O         1 <0>         0.0000
  42270 WAT       -31.4320  -75.9160   -2.3330 O         1 <0>         0.0000
  42271 WAT       -31.4320  -75.9160   -2.0830 O         1 <0>         0.0000
  42272 WAT       -31.4320  -75.9160   -1.8330 O         1 <0>         0.0000
  42273 WAT       -31.4320  -75.9160   -1.5830 O         1 <0>         0.0000
  42274 WAT       -31.4320  -75.9160   -1.3330 O         1 <0>         0.0000
  42275 WAT       -31.4320  -75.9160   -1.0830 O         1 <0>         0.0000
  42276 WAT       -31.4320  -75.9160   -0.8330 O         1 <0>         0.0000
  42277 WAT       -31.4320  -75.9160   -0.5830 O         1 <0>         0.0000
  42278 WAT       -31.4320  -75.9160   -0.3330 O         1 <0>         0.0000
  42279 WAT       -31.4320  -75.9160   -0.0830 O         1 <0>         0.0000
  42280 WAT       -31.4320  -75.6660   -9.8330 O         1 <0>         0.0000
  42281 WAT       -31.4320  -75.6660   -9.5830 O         1 <0>         0.0000
  42282 WAT       -31.4320  -75.6660   -9.3330 O         1 <0>         0.0000
  42283 WAT       -31.4320  -75.6660   -9.0830 O         1 <0>         0.0000
  42284 WAT       -31.4320  -75.6660   -8.8330 O         1 <0>         0.0000
  42285 WAT       -31.4320  -75.6660   -8.5830 O         1 <0>         0.0000
  42286 WAT       -31.4320  -75.6660   -8.3330 O         1 <0>         0.0000
  42287 WAT       -31.4320  -75.6660   -8.0830 O         1 <0>         0.0000
  42288 WAT       -31.4320  -75.6660   -7.8330 O         1 <0>         0.0000
  42289 WAT       -31.4320  -75.6660   -7.5830 O         1 <0>         0.0000
  42290 WAT       -31.4320  -75.6660   -7.3330 O         1 <0>         0.0000
  42291 WAT       -31.4320  -75.6660   -7.0830 O         1 <0>         0.0000
  42292 WAT       -31.4320  -75.6660   -6.8330 O         1 <0>         0.0000
  42293 WAT       -31.4320  -75.6660   -6.5830 O         1 <0>         0.0000
  42294 WAT       -31.4320  -75.6660   -6.3330 O         1 <0>         0.0000
  42295 WAT       -31.4320  -75.6660   -6.0830 O         1 <0>         0.0000
  42296 WAT       -31.4320  -75.6660   -5.8330 O         1 <0>         0.0000
  42297 WAT       -31.4320  -75.6660   -5.5830 O         1 <0>         0.0000
  42298 WAT       -31.4320  -75.6660   -5.3330 O         1 <0>         0.0000
  42299 WAT       -31.4320  -75.6660   -5.0830 O         1 <0>         0.0000
  42300 WAT       -31.4320  -75.6660   -4.8330 O         1 <0>         0.0000
  42301 WAT       -31.4320  -75.6660   -4.5830 O         1 <0>         0.0000
  42302 WAT       -31.4320  -75.6660   -4.3330 O         1 <0>         0.0000
  42303 WAT       -31.4320  -75.6660   -4.0830 O         1 <0>         0.0000
  42304 WAT       -31.4320  -75.6660   -3.8330 O         1 <0>         0.0000
  42305 WAT       -31.4320  -75.6660   -3.5830 O         1 <0>         0.0000
  42306 WAT       -31.4320  -75.6660   -3.3330 O         1 <0>         0.0000
  42307 WAT       -31.4320  -75.6660   -3.0830 O         1 <0>         0.0000
  42308 WAT       -31.4320  -75.6660   -2.8330 O         1 <0>         0.0000
  42309 WAT       -31.4320  -75.6660   -2.5830 O         1 <0>         0.0000
  42310 WAT       -31.4320  -75.6660   -2.3330 O         1 <0>         0.0000
  42311 WAT       -31.4320  -75.6660   -2.0830 O         1 <0>         0.0000
  42312 WAT       -31.4320  -75.6660   -1.8330 O         1 <0>         0.0000
  42313 WAT       -31.4320  -75.6660   -1.5830 O         1 <0>         0.0000
  42314 WAT       -31.4320  -75.6660   -1.3330 O         1 <0>         0.0000
  42315 WAT       -31.4320  -75.6660   -1.0830 O         1 <0>         0.0000
  42316 WAT       -31.4320  -75.6660   -0.8330 O         1 <0>         0.0000
  42317 WAT       -31.4320  -75.6660   -0.5830 O         1 <0>         0.0000
  42318 WAT       -31.4320  -75.6660   -0.3330 O         1 <0>         0.0000
  42319 WAT       -31.4320  -75.6660   -0.0830 O         1 <0>         0.0000
  42320 WAT       -31.4320  -75.4160   -9.8330 O         1 <0>         0.0000
  42321 WAT       -31.4320  -75.4160   -9.5830 O         1 <0>         0.0000
  42322 WAT       -31.4320  -75.4160   -9.3330 O         1 <0>         0.0000
  42323 WAT       -31.4320  -75.4160   -9.0830 O         1 <0>         0.0000
  42324 WAT       -31.4320  -75.4160   -8.8330 O         1 <0>         0.0000
  42325 WAT       -31.4320  -75.4160   -8.5830 O         1 <0>         0.0000
  42326 WAT       -31.4320  -75.4160   -8.3330 O         1 <0>         0.0000
  42327 WAT       -31.4320  -75.4160   -8.0830 O         1 <0>         0.0000
  42328 WAT       -31.4320  -75.4160   -7.8330 O         1 <0>         0.0000
  42329 WAT       -31.4320  -75.4160   -7.5830 O         1 <0>         0.0000
  42330 WAT       -31.4320  -75.4160   -7.3330 O         1 <0>         0.0000
  42331 WAT       -31.4320  -75.4160   -7.0830 O         1 <0>         0.0000
  42332 WAT       -31.4320  -75.4160   -6.8330 O         1 <0>         0.0000
  42333 WAT       -31.4320  -75.4160   -6.5830 O         1 <0>         0.0000
  42334 WAT       -31.4320  -75.4160   -6.3330 O         1 <0>         0.0000
  42335 WAT       -31.4320  -75.4160   -6.0830 O         1 <0>         0.0000
  42336 WAT       -31.4320  -75.4160   -5.8330 O         1 <0>         0.0000
  42337 WAT       -31.4320  -75.4160   -5.5830 O         1 <0>         0.0001
  42338 WAT       -31.4320  -75.4160   -5.3330 O         1 <0>         0.0000
  42339 WAT       -31.4320  -75.4160   -5.0830 O         1 <0>         0.0000
  42340 WAT       -31.4320  -75.4160   -4.8330 O         1 <0>         0.0000
  42341 WAT       -31.4320  -75.4160   -4.5830 O         1 <0>         0.0000
  42342 WAT       -31.4320  -75.4160   -4.3330 O         1 <0>         0.0000
  42343 WAT       -31.4320  -75.4160   -4.0830 O         1 <0>         0.0000
  42344 WAT       -31.4320  -75.4160   -3.8330 O         1 <0>         0.0000
  42345 WAT       -31.4320  -75.4160   -3.5830 O         1 <0>         0.0000
  42346 WAT       -31.4320  -75.4160   -3.3330 O         1 <0>         0.0000
  42347 WAT       -31.4320  -75.4160   -3.0830 O         1 <0>         0.0000
  42348 WAT       -31.4320  -75.4160   -2.8330 O         1 <0>         0.0000
  42349 WAT       -31.4320  -75.4160   -2.5830 O         1 <0>         0.0000
  42350 WAT       -31.4320  -75.4160   -2.3330 O         1 <0>         0.0000
  42351 WAT       -31.4320  -75.4160   -2.0830 O         1 <0>         0.0000
  42352 WAT       -31.4320  -75.4160   -1.8330 O         1 <0>         0.0000
  42353 WAT       -31.4320  -75.4160   -1.5830 O         1 <0>         0.0000
  42354 WAT       -31.4320  -75.4160   -1.3330 O         1 <0>         0.0000
  42355 WAT       -31.4320  -75.4160   -1.0830 O         1 <0>         0.0000
  42356 WAT       -31.4320  -75.4160   -0.8330 O         1 <0>         0.0000
  42357 WAT       -31.4320  -75.4160   -0.5830 O         1 <0>         0.0000
  42358 WAT       -31.4320  -75.4160   -0.3330 O         1 <0>         0.0000
  42359 WAT       -31.4320  -75.4160   -0.0830 O         1 <0>         0.0000
  42360 WAT       -31.4320  -75.1660   -9.8330 O         1 <0>         0.0000
  42361 WAT       -31.4320  -75.1660   -9.5830 O         1 <0>         0.0000
  42362 WAT       -31.4320  -75.1660   -9.3330 O         1 <0>         0.0000
  42363 WAT       -31.4320  -75.1660   -9.0830 O         1 <0>         0.0000
  42364 WAT       -31.4320  -75.1660   -8.8330 O         1 <0>         0.0000
  42365 WAT       -31.4320  -75.1660   -8.5830 O         1 <0>         0.0000
  42366 WAT       -31.4320  -75.1660   -8.3330 O         1 <0>         0.0000
  42367 WAT       -31.4320  -75.1660   -8.0830 O         1 <0>         0.0000
  42368 WAT       -31.4320  -75.1660   -7.8330 O         1 <0>         0.0000
  42369 WAT       -31.4320  -75.1660   -7.5830 O         1 <0>         0.0000
  42370 WAT       -31.4320  -75.1660   -7.3330 O         1 <0>         0.0000
  42371 WAT       -31.4320  -75.1660   -7.0830 O         1 <0>         0.0000
  42372 WAT       -31.4320  -75.1660   -6.8330 O         1 <0>         0.0000
  42373 WAT       -31.4320  -75.1660   -6.5830 O         1 <0>         0.0000
  42374 WAT       -31.4320  -75.1660   -6.3330 O         1 <0>         0.0000
  42375 WAT       -31.4320  -75.1660   -6.0830 O         1 <0>         0.0001
  42376 WAT       -31.4320  -75.1660   -5.8330 O         1 <0>         0.0002
  42377 WAT       -31.4320  -75.1660   -5.5830 O         1 <0>         0.0003
  42378 WAT       -31.4320  -75.1660   -5.3330 O         1 <0>         0.0002
  42379 WAT       -31.4320  -75.1660   -5.0830 O         1 <0>         0.0001
  42380 WAT       -31.4320  -75.1660   -4.8330 O         1 <0>         0.0000
  42381 WAT       -31.4320  -75.1660   -4.5830 O         1 <0>         0.0000
  42382 WAT       -31.4320  -75.1660   -4.3330 O         1 <0>         0.0000
  42383 WAT       -31.4320  -75.1660   -4.0830 O         1 <0>         0.0000
  42384 WAT       -31.4320  -75.1660   -3.8330 O         1 <0>         0.0000
  42385 WAT       -31.4320  -75.1660   -3.5830 O         1 <0>         0.0000
  42386 WAT       -31.4320  -75.1660   -3.3330 O         1 <0>         0.0000
  42387 WAT       -31.4320  -75.1660   -3.0830 O         1 <0>         0.0000
  42388 WAT       -31.4320  -75.1660   -2.8330 O         1 <0>         0.0000
  42389 WAT       -31.4320  -75.1660   -2.5830 O         1 <0>         0.0000
  42390 WAT       -31.4320  -75.1660   -2.3330 O         1 <0>         0.0000
  42391 WAT       -31.4320  -75.1660   -2.0830 O         1 <0>         0.0000
  42392 WAT       -31.4320  -75.1660   -1.8330 O         1 <0>         0.0000
  42393 WAT       -31.4320  -75.1660   -1.5830 O         1 <0>         0.0000
  42394 WAT       -31.4320  -75.1660   -1.3330 O         1 <0>         0.0000
  42395 WAT       -31.4320  -75.1660   -1.0830 O         1 <0>         0.0000
  42396 WAT       -31.4320  -75.1660   -0.8330 O         1 <0>         0.0000
  42397 WAT       -31.4320  -75.1660   -0.5830 O         1 <0>         0.0000
  42398 WAT       -31.4320  -75.1660   -0.3330 O         1 <0>         0.0000
  42399 WAT       -31.4320  -75.1660   -0.0830 O         1 <0>         0.0000
  42400 WAT       -31.4320  -74.9160   -9.8330 O         1 <0>         0.0000
  42401 WAT       -31.4320  -74.9160   -9.5830 O         1 <0>         0.0000
  42402 WAT       -31.4320  -74.9160   -9.3330 O         1 <0>         0.0000
  42403 WAT       -31.4320  -74.9160   -9.0830 O         1 <0>         0.0000
  42404 WAT       -31.4320  -74.9160   -8.8330 O         1 <0>         0.0000
  42405 WAT       -31.4320  -74.9160   -8.5830 O         1 <0>         0.0000
  42406 WAT       -31.4320  -74.9160   -8.3330 O         1 <0>         0.0000
  42407 WAT       -31.4320  -74.9160   -8.0830 O         1 <0>         0.0000
  42408 WAT       -31.4320  -74.9160   -7.8330 O         1 <0>         0.0000
  42409 WAT       -31.4320  -74.9160   -7.5830 O         1 <0>         0.0000
  42410 WAT       -31.4320  -74.9160   -7.3330 O         1 <0>         0.0000
  42411 WAT       -31.4320  -74.9160   -7.0830 O         1 <0>         0.0000
  42412 WAT       -31.4320  -74.9160   -6.8330 O         1 <0>         0.0000
  42413 WAT       -31.4320  -74.9160   -6.5830 O         1 <0>         0.0000
  42414 WAT       -31.4320  -74.9160   -6.3330 O         1 <0>         0.0000
  42415 WAT       -31.4320  -74.9160   -6.0830 O         1 <0>         0.0002
  42416 WAT       -31.4320  -74.9160   -5.8330 O         1 <0>         0.0005
  42417 WAT       -31.4320  -74.9160   -5.5830 O         1 <0>         0.0007
  42418 WAT       -31.4320  -74.9160   -5.3330 O         1 <0>         0.0007
  42419 WAT       -31.4320  -74.9160   -5.0830 O         1 <0>         0.0004
  42420 WAT       -31.4320  -74.9160   -4.8330 O         1 <0>         0.0001
  42421 WAT       -31.4320  -74.9160   -4.5830 O         1 <0>         0.0000
  42422 WAT       -31.4320  -74.9160   -4.3330 O         1 <0>         0.0000
  42423 WAT       -31.4320  -74.9160   -4.0830 O         1 <0>         0.0000
  42424 WAT       -31.4320  -74.9160   -3.8330 O         1 <0>         0.0000
  42425 WAT       -31.4320  -74.9160   -3.5830 O         1 <0>         0.0000
  42426 WAT       -31.4320  -74.9160   -3.3330 O         1 <0>         0.0000
  42427 WAT       -31.4320  -74.9160   -3.0830 O         1 <0>         0.0000
  42428 WAT       -31.4320  -74.9160   -2.8330 O         1 <0>         0.0000
  42429 WAT       -31.4320  -74.9160   -2.5830 O         1 <0>         0.0000
  42430 WAT       -31.4320  -74.9160   -2.3330 O         1 <0>         0.0000
  42431 WAT       -31.4320  -74.9160   -2.0830 O         1 <0>         0.0000
  42432 WAT       -31.4320  -74.9160   -1.8330 O         1 <0>         0.0000
  42433 WAT       -31.4320  -74.9160   -1.5830 O         1 <0>         0.0000
  42434 WAT       -31.4320  -74.9160   -1.3330 O         1 <0>         0.0000
  42435 WAT       -31.4320  -74.9160   -1.0830 O         1 <0>         0.0000
  42436 WAT       -31.4320  -74.9160   -0.8330 O         1 <0>         0.0000
  42437 WAT       -31.4320  -74.9160   -0.5830 O         1 <0>         0.0000
  42438 WAT       -31.4320  -74.9160   -0.3330 O         1 <0>         0.0000
  42439 WAT       -31.4320  -74.9160   -0.0830 O         1 <0>         0.0000
  42440 WAT       -31.4320  -74.6660   -9.8330 O         1 <0>         0.0000
  42441 WAT       -31.4320  -74.6660   -9.5830 O         1 <0>         0.0000
  42442 WAT       -31.4320  -74.6660   -9.3330 O         1 <0>         0.0000
  42443 WAT       -31.4320  -74.6660   -9.0830 O         1 <0>         0.0000
  42444 WAT       -31.4320  -74.6660   -8.8330 O         1 <0>         0.0000
  42445 WAT       -31.4320  -74.6660   -8.5830 O         1 <0>         0.0000
  42446 WAT       -31.4320  -74.6660   -8.3330 O         1 <0>         0.0000
  42447 WAT       -31.4320  -74.6660   -8.0830 O         1 <0>         0.0000
  42448 WAT       -31.4320  -74.6660   -7.8330 O         1 <0>         0.0000
  42449 WAT       -31.4320  -74.6660   -7.5830 O         1 <0>         0.0000
  42450 WAT       -31.4320  -74.6660   -7.3330 O         1 <0>         0.0000
  42451 WAT       -31.4320  -74.6660   -7.0830 O         1 <0>         0.0000
  42452 WAT       -31.4320  -74.6660   -6.8330 O         1 <0>         0.0000
  42453 WAT       -31.4320  -74.6660   -6.5830 O         1 <0>         0.0000
  42454 WAT       -31.4320  -74.6660   -6.3330 O         1 <0>         0.0001
  42455 WAT       -31.4320  -74.6660   -6.0830 O         1 <0>         0.0004
  42456 WAT       -31.4320  -74.6660   -5.8330 O         1 <0>         0.0008
  42457 WAT       -31.4320  -74.6660   -5.5830 O         1 <0>         0.0013
  42458 WAT       -31.4320  -74.6660   -5.3330 O         1 <0>         0.0013
  42459 WAT       -31.4320  -74.6660   -5.0830 O         1 <0>         0.0009
  42460 WAT       -31.4320  -74.6660   -4.8330 O         1 <0>         0.0004
  42461 WAT       -31.4320  -74.6660   -4.5830 O         1 <0>         0.0001
  42462 WAT       -31.4320  -74.6660   -4.3330 O         1 <0>         0.0000
  42463 WAT       -31.4320  -74.6660   -4.0830 O         1 <0>         0.0000
  42464 WAT       -31.4320  -74.6660   -3.8330 O         1 <0>         0.0000
  42465 WAT       -31.4320  -74.6660   -3.5830 O         1 <0>         0.0000
  42466 WAT       -31.4320  -74.6660   -3.3330 O         1 <0>         0.0000
  42467 WAT       -31.4320  -74.6660   -3.0830 O         1 <0>         0.0000
  42468 WAT       -31.4320  -74.6660   -2.8330 O         1 <0>         0.0000
  42469 WAT       -31.4320  -74.6660   -2.5830 O         1 <0>         0.0000
  42470 WAT       -31.4320  -74.6660   -2.3330 O         1 <0>         0.0000
  42471 WAT       -31.4320  -74.6660   -2.0830 O         1 <0>         0.0000
  42472 WAT       -31.4320  -74.6660   -1.8330 O         1 <0>         0.0000
  42473 WAT       -31.4320  -74.6660   -1.5830 O         1 <0>         0.0000
  42474 WAT       -31.4320  -74.6660   -1.3330 O         1 <0>         0.0000
  42475 WAT       -31.4320  -74.6660   -1.0830 O         1 <0>         0.0000
  42476 WAT       -31.4320  -74.6660   -0.8330 O         1 <0>         0.0000
  42477 WAT       -31.4320  -74.6660   -0.5830 O         1 <0>         0.0000
  42478 WAT       -31.4320  -74.6660   -0.3330 O         1 <0>         0.0000
  42479 WAT       -31.4320  -74.6660   -0.0830 O         1 <0>         0.0000
  42480 WAT       -31.4320  -74.4160   -9.8330 O         1 <0>         0.0000
  42481 WAT       -31.4320  -74.4160   -9.5830 O         1 <0>         0.0000
  42482 WAT       -31.4320  -74.4160   -9.3330 O         1 <0>         0.0000
  42483 WAT       -31.4320  -74.4160   -9.0830 O         1 <0>         0.0000
  42484 WAT       -31.4320  -74.4160   -8.8330 O         1 <0>         0.0000
  42485 WAT       -31.4320  -74.4160   -8.5830 O         1 <0>         0.0000
  42486 WAT       -31.4320  -74.4160   -8.3330 O         1 <0>         0.0000
  42487 WAT       -31.4320  -74.4160   -8.0830 O         1 <0>         0.0000
  42488 WAT       -31.4320  -74.4160   -7.8330 O         1 <0>         0.0000
  42489 WAT       -31.4320  -74.4160   -7.5830 O         1 <0>         0.0000
  42490 WAT       -31.4320  -74.4160   -7.3330 O         1 <0>         0.0000
  42491 WAT       -31.4320  -74.4160   -7.0830 O         1 <0>         0.0000
  42492 WAT       -31.4320  -74.4160   -6.8330 O         1 <0>         0.0000
  42493 WAT       -31.4320  -74.4160   -6.5830 O         1 <0>         0.0000
  42494 WAT       -31.4320  -74.4160   -6.3330 O         1 <0>         0.0002
  42495 WAT       -31.4320  -74.4160   -6.0830 O         1 <0>         0.0005
  42496 WAT       -31.4320  -74.4160   -5.8330 O         1 <0>         0.0012
  42497 WAT       -31.4320  -74.4160   -5.5830 O         1 <0>         0.0018
  42498 WAT       -31.4320  -74.4160   -5.3330 O         1 <0>         0.0019
  42499 WAT       -31.4320  -74.4160   -5.0830 O         1 <0>         0.0015
  42500 WAT       -31.4320  -74.4160   -4.8330 O         1 <0>         0.0008
  42501 WAT       -31.4320  -74.4160   -4.5830 O         1 <0>         0.0003
  42502 WAT       -31.4320  -74.4160   -4.3330 O         1 <0>         0.0001
  42503 WAT       -31.4320  -74.4160   -4.0830 O         1 <0>         0.0000
  42504 WAT       -31.4320  -74.4160   -3.8330 O         1 <0>         0.0000
  42505 WAT       -31.4320  -74.4160   -3.5830 O         1 <0>         0.0000
  42506 WAT       -31.4320  -74.4160   -3.3330 O         1 <0>         0.0000
  42507 WAT       -31.4320  -74.4160   -3.0830 O         1 <0>         0.0000
  42508 WAT       -31.4320  -74.4160   -2.8330 O         1 <0>         0.0000
  42509 WAT       -31.4320  -74.4160   -2.5830 O         1 <0>         0.0000
  42510 WAT       -31.4320  -74.4160   -2.3330 O         1 <0>         0.0000
  42511 WAT       -31.4320  -74.4160   -2.0830 O         1 <0>         0.0000
  42512 WAT       -31.4320  -74.4160   -1.8330 O         1 <0>         0.0000
  42513 WAT       -31.4320  -74.4160   -1.5830 O         1 <0>         0.0000
  42514 WAT       -31.4320  -74.4160   -1.3330 O         1 <0>         0.0000
  42515 WAT       -31.4320  -74.4160   -1.0830 O         1 <0>         0.0000
  42516 WAT       -31.4320  -74.4160   -0.8330 O         1 <0>         0.0000
  42517 WAT       -31.4320  -74.4160   -0.5830 O         1 <0>         0.0000
  42518 WAT       -31.4320  -74.4160   -0.3330 O         1 <0>         0.0000
  42519 WAT       -31.4320  -74.4160   -0.0830 O         1 <0>         0.0000
  42520 WAT       -31.4320  -74.1660   -9.8330 O         1 <0>         0.0000
  42521 WAT       -31.4320  -74.1660   -9.5830 O         1 <0>         0.0000
  42522 WAT       -31.4320  -74.1660   -9.3330 O         1 <0>         0.0000
  42523 WAT       -31.4320  -74.1660   -9.0830 O         1 <0>         0.0000
  42524 WAT       -31.4320  -74.1660   -8.8330 O         1 <0>         0.0000
  42525 WAT       -31.4320  -74.1660   -8.5830 O         1 <0>         0.0000
  42526 WAT       -31.4320  -74.1660   -8.3330 O         1 <0>         0.0000
  42527 WAT       -31.4320  -74.1660   -8.0830 O         1 <0>         0.0000
  42528 WAT       -31.4320  -74.1660   -7.8330 O         1 <0>         0.0000
  42529 WAT       -31.4320  -74.1660   -7.5830 O         1 <0>         0.0000
  42530 WAT       -31.4320  -74.1660   -7.3330 O         1 <0>         0.0000
  42531 WAT       -31.4320  -74.1660   -7.0830 O         1 <0>         0.0000
  42532 WAT       -31.4320  -74.1660   -6.8330 O         1 <0>         0.0001
  42533 WAT       -31.4320  -74.1660   -6.5830 O         1 <0>         0.0002
  42534 WAT       -31.4320  -74.1660   -6.3330 O         1 <0>         0.0004
  42535 WAT       -31.4320  -74.1660   -6.0830 O         1 <0>         0.0009
  42536 WAT       -31.4320  -74.1660   -5.8330 O         1 <0>         0.0016
  42537 WAT       -31.4320  -74.1660   -5.5830 O         1 <0>         0.0022
  42538 WAT       -31.4320  -74.1660   -5.3330 O         1 <0>         0.0025
  42539 WAT       -31.4320  -74.1660   -5.0830 O         1 <0>         0.0022
  42540 WAT       -31.4320  -74.1660   -4.8330 O         1 <0>         0.0015
  42541 WAT       -31.4320  -74.1660   -4.5830 O         1 <0>         0.0009
  42542 WAT       -31.4320  -74.1660   -4.3330 O         1 <0>         0.0004
  42543 WAT       -31.4320  -74.1660   -4.0830 O         1 <0>         0.0001
  42544 WAT       -31.4320  -74.1660   -3.8330 O         1 <0>         0.0000
  42545 WAT       -31.4320  -74.1660   -3.5830 O         1 <0>         0.0000
  42546 WAT       -31.4320  -74.1660   -3.3330 O         1 <0>         0.0000
  42547 WAT       -31.4320  -74.1660   -3.0830 O         1 <0>         0.0000
  42548 WAT       -31.4320  -74.1660   -2.8330 O         1 <0>         0.0000
  42549 WAT       -31.4320  -74.1660   -2.5830 O         1 <0>         0.0000
  42550 WAT       -31.4320  -74.1660   -2.3330 O         1 <0>         0.0000
  42551 WAT       -31.4320  -74.1660   -2.0830 O         1 <0>         0.0000
  42552 WAT       -31.4320  -74.1660   -1.8330 O         1 <0>         0.0000
  42553 WAT       -31.4320  -74.1660   -1.5830 O         1 <0>         0.0000
  42554 WAT       -31.4320  -74.1660   -1.3330 O         1 <0>         0.0000
  42555 WAT       -31.4320  -74.1660   -1.0830 O         1 <0>         0.0000
  42556 WAT       -31.4320  -74.1660   -0.8330 O         1 <0>         0.0000
  42557 WAT       -31.4320  -74.1660   -0.5830 O         1 <0>         0.0000
  42558 WAT       -31.4320  -74.1660   -0.3330 O         1 <0>         0.0000
  42559 WAT       -31.4320  -74.1660   -0.0830 O         1 <0>         0.0000
  42560 WAT       -31.4320  -73.9160   -9.8330 O         1 <0>         0.0000
  42561 WAT       -31.4320  -73.9160   -9.5830 O         1 <0>         0.0000
  42562 WAT       -31.4320  -73.9160   -9.3330 O         1 <0>         0.0000
  42563 WAT       -31.4320  -73.9160   -9.0830 O         1 <0>         0.0000
  42564 WAT       -31.4320  -73.9160   -8.8330 O         1 <0>         0.0000
  42565 WAT       -31.4320  -73.9160   -8.5830 O         1 <0>         0.0000
  42566 WAT       -31.4320  -73.9160   -8.3330 O         1 <0>         0.0000
  42567 WAT       -31.4320  -73.9160   -8.0830 O         1 <0>         0.0000
  42568 WAT       -31.4320  -73.9160   -7.8330 O         1 <0>         0.0000
  42569 WAT       -31.4320  -73.9160   -7.5830 O         1 <0>         0.0000
  42570 WAT       -31.4320  -73.9160   -7.3330 O         1 <0>         0.0000
  42571 WAT       -31.4320  -73.9160   -7.0830 O         1 <0>         0.0001
  42572 WAT       -31.4320  -73.9160   -6.8330 O         1 <0>         0.0003
  42573 WAT       -31.4320  -73.9160   -6.5830 O         1 <0>         0.0006
  42574 WAT       -31.4320  -73.9160   -6.3330 O         1 <0>         0.0010
  42575 WAT       -31.4320  -73.9160   -6.0830 O         1 <0>         0.0016
  42576 WAT       -31.4320  -73.9160   -5.8330 O         1 <0>         0.0022
  42577 WAT       -31.4320  -73.9160   -5.5830 O         1 <0>         0.0028
  42578 WAT       -31.4320  -73.9160   -5.3330 O         1 <0>         0.0034
  42579 WAT       -31.4320  -73.9160   -5.0830 O         1 <0>         0.0038
  42580 WAT       -31.4320  -73.9160   -4.8330 O         1 <0>         0.0037
  42581 WAT       -31.4320  -73.9160   -4.5830 O         1 <0>         0.0029
  42582 WAT       -31.4320  -73.9160   -4.3330 O         1 <0>         0.0017
  42583 WAT       -31.4320  -73.9160   -4.0830 O         1 <0>         0.0006
  42584 WAT       -31.4320  -73.9160   -3.8330 O         1 <0>         0.0002
  42585 WAT       -31.4320  -73.9160   -3.5830 O         1 <0>         0.0001
  42586 WAT       -31.4320  -73.9160   -3.3330 O         1 <0>         0.0001
  42587 WAT       -31.4320  -73.9160   -3.0830 O         1 <0>         0.0001
  42588 WAT       -31.4320  -73.9160   -2.8330 O         1 <0>         0.0000
  42589 WAT       -31.4320  -73.9160   -2.5830 O         1 <0>         0.0000
  42590 WAT       -31.4320  -73.9160   -2.3330 O         1 <0>         0.0000
  42591 WAT       -31.4320  -73.9160   -2.0830 O         1 <0>         0.0000
  42592 WAT       -31.4320  -73.9160   -1.8330 O         1 <0>         0.0000
  42593 WAT       -31.4320  -73.9160   -1.5830 O         1 <0>         0.0000
  42594 WAT       -31.4320  -73.9160   -1.3330 O         1 <0>         0.0000
  42595 WAT       -31.4320  -73.9160   -1.0830 O         1 <0>         0.0000
  42596 WAT       -31.4320  -73.9160   -0.8330 O         1 <0>         0.0000
  42597 WAT       -31.4320  -73.9160   -0.5830 O         1 <0>         0.0000
  42598 WAT       -31.4320  -73.9160   -0.3330 O         1 <0>         0.0000
  42599 WAT       -31.4320  -73.9160   -0.0830 O         1 <0>         0.0000
  42600 WAT       -31.4320  -73.6660   -9.8330 O         1 <0>         0.0000
  42601 WAT       -31.4320  -73.6660   -9.5830 O         1 <0>         0.0000
  42602 WAT       -31.4320  -73.6660   -9.3330 O         1 <0>         0.0000
  42603 WAT       -31.4320  -73.6660   -9.0830 O         1 <0>         0.0000
  42604 WAT       -31.4320  -73.6660   -8.8330 O         1 <0>         0.0000
  42605 WAT       -31.4320  -73.6660   -8.5830 O         1 <0>         0.0000
  42606 WAT       -31.4320  -73.6660   -8.3330 O         1 <0>         0.0000
  42607 WAT       -31.4320  -73.6660   -8.0830 O         1 <0>         0.0000
  42608 WAT       -31.4320  -73.6660   -7.8330 O         1 <0>         0.0000
  42609 WAT       -31.4320  -73.6660   -7.5830 O         1 <0>         0.0000
  42610 WAT       -31.4320  -73.6660   -7.3330 O         1 <0>         0.0000
  42611 WAT       -31.4320  -73.6660   -7.0830 O         1 <0>         0.0002
  42612 WAT       -31.4320  -73.6660   -6.8330 O         1 <0>         0.0006
  42613 WAT       -31.4320  -73.6660   -6.5830 O         1 <0>         0.0012
  42614 WAT       -31.4320  -73.6660   -6.3330 O         1 <0>         0.0020
  42615 WAT       -31.4320  -73.6660   -6.0830 O         1 <0>         0.0027
  42616 WAT       -31.4320  -73.6660   -5.8330 O         1 <0>         0.0034
  42617 WAT       -31.4320  -73.6660   -5.5830 O         1 <0>         0.0046
  42618 WAT       -31.4320  -73.6660   -5.3330 O         1 <0>         0.0068
  42619 WAT       -31.4320  -73.6660   -5.0830 O         1 <0>         0.0096
  42620 WAT       -31.4320  -73.6660   -4.8330 O         1 <0>         0.0111
  42621 WAT       -31.4320  -73.6660   -4.5830 O         1 <0>         0.0098
  42622 WAT       -31.4320  -73.6660   -4.3330 O         1 <0>         0.0062
  42623 WAT       -31.4320  -73.6660   -4.0830 O         1 <0>         0.0027
  42624 WAT       -31.4320  -73.6660   -3.8330 O         1 <0>         0.0009
  42625 WAT       -31.4320  -73.6660   -3.5830 O         1 <0>         0.0004
  42626 WAT       -31.4320  -73.6660   -3.3330 O         1 <0>         0.0004
  42627 WAT       -31.4320  -73.6660   -3.0830 O         1 <0>         0.0003
  42628 WAT       -31.4320  -73.6660   -2.8330 O         1 <0>         0.0002
  42629 WAT       -31.4320  -73.6660   -2.5830 O         1 <0>         0.0000
  42630 WAT       -31.4320  -73.6660   -2.3330 O         1 <0>         0.0000
  42631 WAT       -31.4320  -73.6660   -2.0830 O         1 <0>         0.0000
  42632 WAT       -31.4320  -73.6660   -1.8330 O         1 <0>         0.0000
  42633 WAT       -31.4320  -73.6660   -1.5830 O         1 <0>         0.0000
  42634 WAT       -31.4320  -73.6660   -1.3330 O         1 <0>         0.0000
  42635 WAT       -31.4320  -73.6660   -1.0830 O         1 <0>         0.0000
  42636 WAT       -31.4320  -73.6660   -0.8330 O         1 <0>         0.0000
  42637 WAT       -31.4320  -73.6660   -0.5830 O         1 <0>         0.0000
  42638 WAT       -31.4320  -73.6660   -0.3330 O         1 <0>         0.0000
  42639 WAT       -31.4320  -73.6660   -0.0830 O         1 <0>         0.0000
  42640 WAT       -31.4320  -73.4160   -9.8330 O         1 <0>         0.0000
  42641 WAT       -31.4320  -73.4160   -9.5830 O         1 <0>         0.0000
  42642 WAT       -31.4320  -73.4160   -9.3330 O         1 <0>         0.0000
  42643 WAT       -31.4320  -73.4160   -9.0830 O         1 <0>         0.0000
  42644 WAT       -31.4320  -73.4160   -8.8330 O         1 <0>         0.0000
  42645 WAT       -31.4320  -73.4160   -8.5830 O         1 <0>         0.0000
  42646 WAT       -31.4320  -73.4160   -8.3330 O         1 <0>         0.0000
  42647 WAT       -31.4320  -73.4160   -8.0830 O         1 <0>         0.0000
  42648 WAT       -31.4320  -73.4160   -7.8330 O         1 <0>         0.0000
  42649 WAT       -31.4320  -73.4160   -7.5830 O         1 <0>         0.0000
  42650 WAT       -31.4320  -73.4160   -7.3330 O         1 <0>         0.0001
  42651 WAT       -31.4320  -73.4160   -7.0830 O         1 <0>         0.0003
  42652 WAT       -31.4320  -73.4160   -6.8330 O         1 <0>         0.0009
  42653 WAT       -31.4320  -73.4160   -6.5830 O         1 <0>         0.0018
  42654 WAT       -31.4320  -73.4160   -6.3330 O         1 <0>         0.0029
  42655 WAT       -31.4320  -73.4160   -6.0830 O         1 <0>         0.0040
  42656 WAT       -31.4320  -73.4160   -5.8330 O         1 <0>         0.0056
  42657 WAT       -31.4320  -73.4160   -5.5830 O         1 <0>         0.0093
  42658 WAT       -31.4320  -73.4160   -5.3330 O         1 <0>         0.0167
  42659 WAT       -31.4320  -73.4160   -5.0830 O         1 <0>         0.0260
  42660 WAT       -31.4320  -73.4160   -4.8330 O         1 <0>         0.0314
  42661 WAT       -31.4320  -73.4160   -4.5830 O         1 <0>         0.0281
  42662 WAT       -31.4320  -73.4160   -4.3330 O         1 <0>         0.0183
  42663 WAT       -31.4320  -73.4160   -4.0830 O         1 <0>         0.0085
  42664 WAT       -31.4320  -73.4160   -3.8330 O         1 <0>         0.0030
  42665 WAT       -31.4320  -73.4160   -3.5830 O         1 <0>         0.0011
  42666 WAT       -31.4320  -73.4160   -3.3330 O         1 <0>         0.0008
  42667 WAT       -31.4320  -73.4160   -3.0830 O         1 <0>         0.0006
  42668 WAT       -31.4320  -73.4160   -2.8330 O         1 <0>         0.0003
  42669 WAT       -31.4320  -73.4160   -2.5830 O         1 <0>         0.0001
  42670 WAT       -31.4320  -73.4160   -2.3330 O         1 <0>         0.0000
  42671 WAT       -31.4320  -73.4160   -2.0830 O         1 <0>         0.0000
  42672 WAT       -31.4320  -73.4160   -1.8330 O         1 <0>         0.0000
  42673 WAT       -31.4320  -73.4160   -1.5830 O         1 <0>         0.0000
  42674 WAT       -31.4320  -73.4160   -1.3330 O         1 <0>         0.0000
  42675 WAT       -31.4320  -73.4160   -1.0830 O         1 <0>         0.0000
  42676 WAT       -31.4320  -73.4160   -0.8330 O         1 <0>         0.0000
  42677 WAT       -31.4320  -73.4160   -0.5830 O         1 <0>         0.0000
  42678 WAT       -31.4320  -73.4160   -0.3330 O         1 <0>         0.0000
  42679 WAT       -31.4320  -73.4160   -0.0830 O         1 <0>         0.0000
  42680 WAT       -31.4320  -73.1660   -9.8330 O         1 <0>         0.0000
  42681 WAT       -31.4320  -73.1660   -9.5830 O         1 <0>         0.0000
  42682 WAT       -31.4320  -73.1660   -9.3330 O         1 <0>         0.0000
  42683 WAT       -31.4320  -73.1660   -9.0830 O         1 <0>         0.0000
  42684 WAT       -31.4320  -73.1660   -8.8330 O         1 <0>         0.0000
  42685 WAT       -31.4320  -73.1660   -8.5830 O         1 <0>         0.0000
  42686 WAT       -31.4320  -73.1660   -8.3330 O         1 <0>         0.0000
  42687 WAT       -31.4320  -73.1660   -8.0830 O         1 <0>         0.0000
  42688 WAT       -31.4320  -73.1660   -7.8330 O         1 <0>         0.0001
  42689 WAT       -31.4320  -73.1660   -7.5830 O         1 <0>         0.0002
  42690 WAT       -31.4320  -73.1660   -7.3330 O         1 <0>         0.0002
  42691 WAT       -31.4320  -73.1660   -7.0830 O         1 <0>         0.0005
  42692 WAT       -31.4320  -73.1660   -6.8330 O         1 <0>         0.0010
  42693 WAT       -31.4320  -73.1660   -6.5830 O         1 <0>         0.0020
  42694 WAT       -31.4320  -73.1660   -6.3330 O         1 <0>         0.0033
  42695 WAT       -31.4320  -73.1660   -6.0830 O         1 <0>         0.0050
  42696 WAT       -31.4320  -73.1660   -5.8330 O         1 <0>         0.0088
  42697 WAT       -31.4320  -73.1660   -5.5830 O         1 <0>         0.0185
  42698 WAT       -31.4320  -73.1660   -5.3330 O         1 <0>         0.0370
  42699 WAT       -31.4320  -73.1660   -5.0830 O         1 <0>         0.0591
  42700 WAT       -31.4320  -73.1660   -4.8330 O         1 <0>         0.0711
  42701 WAT       -31.4320  -73.1660   -4.5830 O         1 <0>         0.0636
  42702 WAT       -31.4320  -73.1660   -4.3330 O         1 <0>         0.0419
  42703 WAT       -31.4320  -73.1660   -4.0830 O         1 <0>         0.0202
  42704 WAT       -31.4320  -73.1660   -3.8330 O         1 <0>         0.0075
  42705 WAT       -31.4320  -73.1660   -3.5830 O         1 <0>         0.0027
  42706 WAT       -31.4320  -73.1660   -3.3330 O         1 <0>         0.0014
  42707 WAT       -31.4320  -73.1660   -3.0830 O         1 <0>         0.0008
  42708 WAT       -31.4320  -73.1660   -2.8330 O         1 <0>         0.0003
  42709 WAT       -31.4320  -73.1660   -2.5830 O         1 <0>         0.0001
  42710 WAT       -31.4320  -73.1660   -2.3330 O         1 <0>         0.0000
  42711 WAT       -31.4320  -73.1660   -2.0830 O         1 <0>         0.0000
  42712 WAT       -31.4320  -73.1660   -1.8330 O         1 <0>         0.0000
  42713 WAT       -31.4320  -73.1660   -1.5830 O         1 <0>         0.0000
  42714 WAT       -31.4320  -73.1660   -1.3330 O         1 <0>         0.0000
  42715 WAT       -31.4320  -73.1660   -1.0830 O         1 <0>         0.0000
  42716 WAT       -31.4320  -73.1660   -0.8330 O         1 <0>         0.0000
  42717 WAT       -31.4320  -73.1660   -0.5830 O         1 <0>         0.0000
  42718 WAT       -31.4320  -73.1660   -0.3330 O         1 <0>         0.0000
  42719 WAT       -31.4320  -73.1660   -0.0830 O         1 <0>         0.0000
  42720 WAT       -31.4320  -72.9160   -9.8330 O         1 <0>         0.0000
  42721 WAT       -31.4320  -72.9160   -9.5830 O         1 <0>         0.0000
  42722 WAT       -31.4320  -72.9160   -9.3330 O         1 <0>         0.0000
  42723 WAT       -31.4320  -72.9160   -9.0830 O         1 <0>         0.0000
  42724 WAT       -31.4320  -72.9160   -8.8330 O         1 <0>         0.0000
  42725 WAT       -31.4320  -72.9160   -8.5830 O         1 <0>         0.0000
  42726 WAT       -31.4320  -72.9160   -8.3330 O         1 <0>         0.0001
  42727 WAT       -31.4320  -72.9160   -8.0830 O         1 <0>         0.0004
  42728 WAT       -31.4320  -72.9160   -7.8330 O         1 <0>         0.0009
  42729 WAT       -31.4320  -72.9160   -7.5830 O         1 <0>         0.0011
  42730 WAT       -31.4320  -72.9160   -7.3330 O         1 <0>         0.0009
  42731 WAT       -31.4320  -72.9160   -7.0830 O         1 <0>         0.0008
  42732 WAT       -31.4320  -72.9160   -6.8330 O         1 <0>         0.0010
  42733 WAT       -31.4320  -72.9160   -6.5830 O         1 <0>         0.0016
  42734 WAT       -31.4320  -72.9160   -6.3330 O         1 <0>         0.0029
  42735 WAT       -31.4320  -72.9160   -6.0830 O         1 <0>         0.0054
  42736 WAT       -31.4320  -72.9160   -5.8330 O         1 <0>         0.0126
  42737 WAT       -31.4320  -72.9160   -5.5830 O         1 <0>         0.0310
  42738 WAT       -31.4320  -72.9160   -5.3330 O         1 <0>         0.0645
  42739 WAT       -31.4320  -72.9160   -5.0830 O         1 <0>         0.1031
  42740 WAT       -31.4320  -72.9160   -4.8330 O         1 <0>         0.1234
  42741 WAT       -31.4320  -72.9160   -4.5830 O         1 <0>         0.1099
  42742 WAT       -31.4320  -72.9160   -4.3330 O         1 <0>         0.0732
  42743 WAT       -31.4320  -72.9160   -4.0830 O         1 <0>         0.0368
  42744 WAT       -31.4320  -72.9160   -3.8330 O         1 <0>         0.0147
  42745 WAT       -31.4320  -72.9160   -3.5830 O         1 <0>         0.0055
  42746 WAT       -31.4320  -72.9160   -3.3330 O         1 <0>         0.0025
  42747 WAT       -31.4320  -72.9160   -3.0830 O         1 <0>         0.0012
  42748 WAT       -31.4320  -72.9160   -2.8330 O         1 <0>         0.0005
  42749 WAT       -31.4320  -72.9160   -2.5830 O         1 <0>         0.0001
  42750 WAT       -31.4320  -72.9160   -2.3330 O         1 <0>         0.0000
  42751 WAT       -31.4320  -72.9160   -2.0830 O         1 <0>         0.0000
  42752 WAT       -31.4320  -72.9160   -1.8330 O         1 <0>         0.0000
  42753 WAT       -31.4320  -72.9160   -1.5830 O         1 <0>         0.0000
  42754 WAT       -31.4320  -72.9160   -1.3330 O         1 <0>         0.0000
  42755 WAT       -31.4320  -72.9160   -1.0830 O         1 <0>         0.0000
  42756 WAT       -31.4320  -72.9160   -0.8330 O         1 <0>         0.0000
  42757 WAT       -31.4320  -72.9160   -0.5830 O         1 <0>         0.0000
  42758 WAT       -31.4320  -72.9160   -0.3330 O         1 <0>         0.0000
  42759 WAT       -31.4320  -72.9160   -0.0830 O         1 <0>         0.0000
  42760 WAT       -31.4320  -72.6660   -9.8330 O         1 <0>         0.0000
  42761 WAT       -31.4320  -72.6660   -9.5830 O         1 <0>         0.0000
  42762 WAT       -31.4320  -72.6660   -9.3330 O         1 <0>         0.0000
  42763 WAT       -31.4320  -72.6660   -9.0830 O         1 <0>         0.0000
  42764 WAT       -31.4320  -72.6660   -8.8330 O         1 <0>         0.0000
  42765 WAT       -31.4320  -72.6660   -8.5830 O         1 <0>         0.0001
  42766 WAT       -31.4320  -72.6660   -8.3330 O         1 <0>         0.0008
  42767 WAT       -31.4320  -72.6660   -8.0830 O         1 <0>         0.0027
  42768 WAT       -31.4320  -72.6660   -7.8330 O         1 <0>         0.0044
  42769 WAT       -31.4320  -72.6660   -7.5830 O         1 <0>         0.0045
  42770 WAT       -31.4320  -72.6660   -7.3330 O         1 <0>         0.0031
  42771 WAT       -31.4320  -72.6660   -7.0830 O         1 <0>         0.0018
  42772 WAT       -31.4320  -72.6660   -6.8330 O         1 <0>         0.0011
  42773 WAT       -31.4320  -72.6660   -6.5830 O         1 <0>         0.0012
  42774 WAT       -31.4320  -72.6660   -6.3330 O         1 <0>         0.0021
  42775 WAT       -31.4320  -72.6660   -6.0830 O         1 <0>         0.0051
  42776 WAT       -31.4320  -72.6660   -5.8330 O         1 <0>         0.0149
  42777 WAT       -31.4320  -72.6660   -5.5830 O         1 <0>         0.0401
  42778 WAT       -31.4320  -72.6660   -5.3330 O         1 <0>         0.0852
  42779 WAT       -31.4320  -72.6660   -5.0830 O         1 <0>         0.1364
  42780 WAT       -31.4320  -72.6660   -4.8330 O         1 <0>         0.1630
  42781 WAT       -31.4320  -72.6660   -4.5830 O         1 <0>         0.1457
  42782 WAT       -31.4320  -72.6660   -4.3330 O         1 <0>         0.0986
  42783 WAT       -31.4320  -72.6660   -4.0830 O         1 <0>         0.0515
  42784 WAT       -31.4320  -72.6660   -3.8330 O         1 <0>         0.0219
  42785 WAT       -31.4320  -72.6660   -3.5830 O         1 <0>         0.0089
  42786 WAT       -31.4320  -72.6660   -3.3330 O         1 <0>         0.0040
  42787 WAT       -31.4320  -72.6660   -3.0830 O         1 <0>         0.0019
  42788 WAT       -31.4320  -72.6660   -2.8330 O         1 <0>         0.0007
  42789 WAT       -31.4320  -72.6660   -2.5830 O         1 <0>         0.0002
  42790 WAT       -31.4320  -72.6660   -2.3330 O         1 <0>         0.0000
  42791 WAT       -31.4320  -72.6660   -2.0830 O         1 <0>         0.0000
  42792 WAT       -31.4320  -72.6660   -1.8330 O         1 <0>         0.0000
  42793 WAT       -31.4320  -72.6660   -1.5830 O         1 <0>         0.0000
  42794 WAT       -31.4320  -72.6660   -1.3330 O         1 <0>         0.0000
  42795 WAT       -31.4320  -72.6660   -1.0830 O         1 <0>         0.0000
  42796 WAT       -31.4320  -72.6660   -0.8330 O         1 <0>         0.0000
  42797 WAT       -31.4320  -72.6660   -0.5830 O         1 <0>         0.0000
  42798 WAT       -31.4320  -72.6660   -0.3330 O         1 <0>         0.0000
  42799 WAT       -31.4320  -72.6660   -0.0830 O         1 <0>         0.0000
  42800 WAT       -31.4320  -72.4160   -9.8330 O         1 <0>         0.0000
  42801 WAT       -31.4320  -72.4160   -9.5830 O         1 <0>         0.0000
  42802 WAT       -31.4320  -72.4160   -9.3330 O         1 <0>         0.0000
  42803 WAT       -31.4320  -72.4160   -9.0830 O         1 <0>         0.0000
  42804 WAT       -31.4320  -72.4160   -8.8330 O         1 <0>         0.0000
  42805 WAT       -31.4320  -72.4160   -8.5830 O         1 <0>         0.0006
  42806 WAT       -31.4320  -72.4160   -8.3330 O         1 <0>         0.0039
  42807 WAT       -31.4320  -72.4160   -8.0830 O         1 <0>         0.0100
  42808 WAT       -31.4320  -72.4160   -7.8330 O         1 <0>         0.0144
  42809 WAT       -31.4320  -72.4160   -7.5830 O         1 <0>         0.0128
  42810 WAT       -31.4320  -72.4160   -7.3330 O         1 <0>         0.0077
  42811 WAT       -31.4320  -72.4160   -7.0830 O         1 <0>         0.0035
  42812 WAT       -31.4320  -72.4160   -6.8330 O         1 <0>         0.0015
  42813 WAT       -31.4320  -72.4160   -6.5830 O         1 <0>         0.0009
  42814 WAT       -31.4320  -72.4160   -6.3330 O         1 <0>         0.0014
  42815 WAT       -31.4320  -72.4160   -6.0830 O         1 <0>         0.0042
  42816 WAT       -31.4320  -72.4160   -5.8330 O         1 <0>         0.0141
  42817 WAT       -31.4320  -72.4160   -5.5830 O         1 <0>         0.0400
  42818 WAT       -31.4320  -72.4160   -5.3330 O         1 <0>         0.0862
  42819 WAT       -31.4320  -72.4160   -5.0830 O         1 <0>         0.1387
  42820 WAT       -31.4320  -72.4160   -4.8330 O         1 <0>         0.1663
  42821 WAT       -31.4320  -72.4160   -4.5830 O         1 <0>         0.1501
  42822 WAT       -31.4320  -72.4160   -4.3330 O         1 <0>         0.1038
  42823 WAT       -31.4320  -72.4160   -4.0830 O         1 <0>         0.0564
  42824 WAT       -31.4320  -72.4160   -3.8330 O         1 <0>         0.0256
  42825 WAT       -31.4320  -72.4160   -3.5830 O         1 <0>         0.0111
  42826 WAT       -31.4320  -72.4160   -3.3330 O         1 <0>         0.0051
  42827 WAT       -31.4320  -72.4160   -3.0830 O         1 <0>         0.0023
  42828 WAT       -31.4320  -72.4160   -2.8330 O         1 <0>         0.0008
  42829 WAT       -31.4320  -72.4160   -2.5830 O         1 <0>         0.0002
  42830 WAT       -31.4320  -72.4160   -2.3330 O         1 <0>         0.0000
  42831 WAT       -31.4320  -72.4160   -2.0830 O         1 <0>         0.0000
  42832 WAT       -31.4320  -72.4160   -1.8330 O         1 <0>         0.0000
  42833 WAT       -31.4320  -72.4160   -1.5830 O         1 <0>         0.0000
  42834 WAT       -31.4320  -72.4160   -1.3330 O         1 <0>         0.0000
  42835 WAT       -31.4320  -72.4160   -1.0830 O         1 <0>         0.0000
  42836 WAT       -31.4320  -72.4160   -0.8330 O         1 <0>         0.0000
  42837 WAT       -31.4320  -72.4160   -0.5830 O         1 <0>         0.0000
  42838 WAT       -31.4320  -72.4160   -0.3330 O         1 <0>         0.0000
  42839 WAT       -31.4320  -72.4160   -0.0830 O         1 <0>         0.0000
  42840 WAT       -31.4320  -72.1660   -9.8330 O         1 <0>         0.0000
  42841 WAT       -31.4320  -72.1660   -9.5830 O         1 <0>         0.0000
  42842 WAT       -31.4320  -72.1660   -9.3330 O         1 <0>         0.0000
  42843 WAT       -31.4320  -72.1660   -9.0830 O         1 <0>         0.0000
  42844 WAT       -31.4320  -72.1660   -8.8330 O         1 <0>         0.0001
  42845 WAT       -31.4320  -72.1660   -8.5830 O         1 <0>         0.0025
  42846 WAT       -31.4320  -72.1660   -8.3330 O         1 <0>         0.0113
  42847 WAT       -31.4320  -72.1660   -8.0830 O         1 <0>         0.0239
  42848 WAT       -31.4320  -72.1660   -7.8330 O         1 <0>         0.0305
  42849 WAT       -31.4320  -72.1660   -7.5830 O         1 <0>         0.0249
  42850 WAT       -31.4320  -72.1660   -7.3330 O         1 <0>         0.0135
  42851 WAT       -31.4320  -72.1660   -7.0830 O         1 <0>         0.0051
  42852 WAT       -31.4320  -72.1660   -6.8330 O         1 <0>         0.0017
  42853 WAT       -31.4320  -72.1660   -6.5830 O         1 <0>         0.0008
  42854 WAT       -31.4320  -72.1660   -6.3330 O         1 <0>         0.0010
  42855 WAT       -31.4320  -72.1660   -6.0830 O         1 <0>         0.0030
  42856 WAT       -31.4320  -72.1660   -5.8330 O         1 <0>         0.0107
  42857 WAT       -31.4320  -72.1660   -5.5830 O         1 <0>         0.0315
  42858 WAT       -31.4320  -72.1660   -5.3330 O         1 <0>         0.0689
  42859 WAT       -31.4320  -72.1660   -5.0830 O         1 <0>         0.1116
  42860 WAT       -31.4320  -72.1660   -4.8330 O         1 <0>         0.1345
  42861 WAT       -31.4320  -72.1660   -4.5830 O         1 <0>         0.1227
  42862 WAT       -31.4320  -72.1660   -4.3330 O         1 <0>         0.0867
  42863 WAT       -31.4320  -72.1660   -4.0830 O         1 <0>         0.0486
  42864 WAT       -31.4320  -72.1660   -3.8330 O         1 <0>         0.0232
  42865 WAT       -31.4320  -72.1660   -3.5830 O         1 <0>         0.0105
  42866 WAT       -31.4320  -72.1660   -3.3330 O         1 <0>         0.0049
  42867 WAT       -31.4320  -72.1660   -3.0830 O         1 <0>         0.0022
  42868 WAT       -31.4320  -72.1660   -2.8330 O         1 <0>         0.0009
  42869 WAT       -31.4320  -72.1660   -2.5830 O         1 <0>         0.0002
  42870 WAT       -31.4320  -72.1660   -2.3330 O         1 <0>         0.0000
  42871 WAT       -31.4320  -72.1660   -2.0830 O         1 <0>         0.0000
  42872 WAT       -31.4320  -72.1660   -1.8330 O         1 <0>         0.0000
  42873 WAT       -31.4320  -72.1660   -1.5830 O         1 <0>         0.0000
  42874 WAT       -31.4320  -72.1660   -1.3330 O         1 <0>         0.0000
  42875 WAT       -31.4320  -72.1660   -1.0830 O         1 <0>         0.0000
  42876 WAT       -31.4320  -72.1660   -0.8330 O         1 <0>         0.0000
  42877 WAT       -31.4320  -72.1660   -0.5830 O         1 <0>         0.0000
  42878 WAT       -31.4320  -72.1660   -0.3330 O         1 <0>         0.0000
  42879 WAT       -31.4320  -72.1660   -0.0830 O         1 <0>         0.0000
  42880 WAT       -31.4320  -71.9160   -9.8330 O         1 <0>         0.0000
  42881 WAT       -31.4320  -71.9160   -9.5830 O         1 <0>         0.0000
  42882 WAT       -31.4320  -71.9160   -9.3330 O         1 <0>         0.0000
  42883 WAT       -31.4320  -71.9160   -9.0830 O         1 <0>         0.0000
  42884 WAT       -31.4320  -71.9160   -8.8330 O         1 <0>         0.0006
  42885 WAT       -31.4320  -71.9160   -8.5830 O         1 <0>         0.0057
  42886 WAT       -31.4320  -71.9160   -8.3330 O         1 <0>         0.0198
  42887 WAT       -31.4320  -71.9160   -8.0830 O         1 <0>         0.0371
  42888 WAT       -31.4320  -71.9160   -7.8330 O         1 <0>         0.0434
  42889 WAT       -31.4320  -71.9160   -7.5830 O         1 <0>         0.0328
  42890 WAT       -31.4320  -71.9160   -7.3330 O         1 <0>         0.0162
  42891 WAT       -31.4320  -71.9160   -7.0830 O         1 <0>         0.0053
  42892 WAT       -31.4320  -71.9160   -6.8330 O         1 <0>         0.0014
  42893 WAT       -31.4320  -71.9160   -6.5830 O         1 <0>         0.0005
  42894 WAT       -31.4320  -71.9160   -6.3330 O         1 <0>         0.0006
  42895 WAT       -31.4320  -71.9160   -6.0830 O         1 <0>         0.0018
  42896 WAT       -31.4320  -71.9160   -5.8330 O         1 <0>         0.0068
  42897 WAT       -31.4320  -71.9160   -5.5830 O         1 <0>         0.0204
  42898 WAT       -31.4320  -71.9160   -5.3330 O         1 <0>         0.0454
  42899 WAT       -31.4320  -71.9160   -5.0830 O         1 <0>         0.0739
  42900 WAT       -31.4320  -71.9160   -4.8330 O         1 <0>         0.0890
  42901 WAT       -31.4320  -71.9160   -4.5830 O         1 <0>         0.0812
  42902 WAT       -31.4320  -71.9160   -4.3330 O         1 <0>         0.0577
  42903 WAT       -31.4320  -71.9160   -4.0830 O         1 <0>         0.0329
  42904 WAT       -31.4320  -71.9160   -3.8330 O         1 <0>         0.0160
  42905 WAT       -31.4320  -71.9160   -3.5830 O         1 <0>         0.0073
  42906 WAT       -31.4320  -71.9160   -3.3330 O         1 <0>         0.0035
  42907 WAT       -31.4320  -71.9160   -3.0830 O         1 <0>         0.0017
  42908 WAT       -31.4320  -71.9160   -2.8330 O         1 <0>         0.0007
  42909 WAT       -31.4320  -71.9160   -2.5830 O         1 <0>         0.0002
  42910 WAT       -31.4320  -71.9160   -2.3330 O         1 <0>         0.0000
  42911 WAT       -31.4320  -71.9160   -2.0830 O         1 <0>         0.0000
  42912 WAT       -31.4320  -71.9160   -1.8330 O         1 <0>         0.0000
  42913 WAT       -31.4320  -71.9160   -1.5830 O         1 <0>         0.0000
  42914 WAT       -31.4320  -71.9160   -1.3330 O         1 <0>         0.0000
  42915 WAT       -31.4320  -71.9160   -1.0830 O         1 <0>         0.0000
  42916 WAT       -31.4320  -71.9160   -0.8330 O         1 <0>         0.0000
  42917 WAT       -31.4320  -71.9160   -0.5830 O         1 <0>         0.0000
  42918 WAT       -31.4320  -71.9160   -0.3330 O         1 <0>         0.0000
  42919 WAT       -31.4320  -71.9160   -0.0830 O         1 <0>         0.0000
  42920 WAT       -31.4320  -71.6660   -9.8330 O         1 <0>         0.0000
  42921 WAT       -31.4320  -71.6660   -9.5830 O         1 <0>         0.0000
  42922 WAT       -31.4320  -71.6660   -9.3330 O         1 <0>         0.0000
  42923 WAT       -31.4320  -71.6660   -9.0830 O         1 <0>         0.0001
  42924 WAT       -31.4320  -71.6660   -8.8330 O         1 <0>         0.0013
  42925 WAT       -31.4320  -71.6660   -8.5830 O         1 <0>         0.0081
  42926 WAT       -31.4320  -71.6660   -8.3330 O         1 <0>         0.0234
  42927 WAT       -31.4320  -71.6660   -8.0830 O         1 <0>         0.0396
  42928 WAT       -31.4320  -71.6660   -7.8330 O         1 <0>         0.0426
  42929 WAT       -31.4320  -71.6660   -7.5830 O         1 <0>         0.0296
  42930 WAT       -31.4320  -71.6660   -7.3330 O         1 <0>         0.0131
  42931 WAT       -31.4320  -71.6660   -7.0830 O         1 <0>         0.0038
  42932 WAT       -31.4320  -71.6660   -6.8330 O         1 <0>         0.0008
  42933 WAT       -31.4320  -71.6660   -6.5830 O         1 <0>         0.0003
  42934 WAT       -31.4320  -71.6660   -6.3330 O         1 <0>         0.0004
  42935 WAT       -31.4320  -71.6660   -6.0830 O         1 <0>         0.0012
  42936 WAT       -31.4320  -71.6660   -5.8330 O         1 <0>         0.0040
  42937 WAT       -31.4320  -71.6660   -5.5830 O         1 <0>         0.0117
  42938 WAT       -31.4320  -71.6660   -5.3330 O         1 <0>         0.0257
  42939 WAT       -31.4320  -71.6660   -5.0830 O         1 <0>         0.0415
  42940 WAT       -31.4320  -71.6660   -4.8330 O         1 <0>         0.0491
  42941 WAT       -31.4320  -71.6660   -4.5830 O         1 <0>         0.0439
  42942 WAT       -31.4320  -71.6660   -4.3330 O         1 <0>         0.0306
  42943 WAT       -31.4320  -71.6660   -4.0830 O         1 <0>         0.0172
  42944 WAT       -31.4320  -71.6660   -3.8330 O         1 <0>         0.0082
  42945 WAT       -31.4320  -71.6660   -3.5830 O         1 <0>         0.0037
  42946 WAT       -31.4320  -71.6660   -3.3330 O         1 <0>         0.0018
  42947 WAT       -31.4320  -71.6660   -3.0830 O         1 <0>         0.0009
  42948 WAT       -31.4320  -71.6660   -2.8330 O         1 <0>         0.0004
  42949 WAT       -31.4320  -71.6660   -2.5830 O         1 <0>         0.0001
  42950 WAT       -31.4320  -71.6660   -2.3330 O         1 <0>         0.0000
  42951 WAT       -31.4320  -71.6660   -2.0830 O         1 <0>         0.0000
  42952 WAT       -31.4320  -71.6660   -1.8330 O         1 <0>         0.0000
  42953 WAT       -31.4320  -71.6660   -1.5830 O         1 <0>         0.0000
  42954 WAT       -31.4320  -71.6660   -1.3330 O         1 <0>         0.0000
  42955 WAT       -31.4320  -71.6660   -1.0830 O         1 <0>         0.0000
  42956 WAT       -31.4320  -71.6660   -0.8330 O         1 <0>         0.0000
  42957 WAT       -31.4320  -71.6660   -0.5830 O         1 <0>         0.0000
  42958 WAT       -31.4320  -71.6660   -0.3330 O         1 <0>         0.0000
  42959 WAT       -31.4320  -71.6660   -0.0830 O         1 <0>         0.0000
  42960 WAT       -31.4320  -71.4160   -9.8330 O         1 <0>         0.0000
  42961 WAT       -31.4320  -71.4160   -9.5830 O         1 <0>         0.0000
  42962 WAT       -31.4320  -71.4160   -9.3330 O         1 <0>         0.0000
  42963 WAT       -31.4320  -71.4160   -9.0830 O         1 <0>         0.0002
  42964 WAT       -31.4320  -71.4160   -8.8330 O         1 <0>         0.0017
  42965 WAT       -31.4320  -71.4160   -8.5830 O         1 <0>         0.0077
  42966 WAT       -31.4320  -71.4160   -8.3330 O         1 <0>         0.0192
  42967 WAT       -31.4320  -71.4160   -8.0830 O         1 <0>         0.0296
  42968 WAT       -31.4320  -71.4160   -7.8330 O         1 <0>         0.0291
  42969 WAT       -31.4320  -71.4160   -7.5830 O         1 <0>         0.0183
  42970 WAT       -31.4320  -71.4160   -7.3330 O         1 <0>         0.0071
  42971 WAT       -31.4320  -71.4160   -7.0830 O         1 <0>         0.0017
  42972 WAT       -31.4320  -71.4160   -6.8330 O         1 <0>         0.0003
  42973 WAT       -31.4320  -71.4160   -6.5830 O         1 <0>         0.0002
  42974 WAT       -31.4320  -71.4160   -6.3330 O         1 <0>         0.0005
  42975 WAT       -31.4320  -71.4160   -6.0830 O         1 <0>         0.0011
  42976 WAT       -31.4320  -71.4160   -5.8330 O         1 <0>         0.0026
  42977 WAT       -31.4320  -71.4160   -5.5830 O         1 <0>         0.0062
  42978 WAT       -31.4320  -71.4160   -5.3330 O         1 <0>         0.0128
  42979 WAT       -31.4320  -71.4160   -5.0830 O         1 <0>         0.0197
  42980 WAT       -31.4320  -71.4160   -4.8330 O         1 <0>         0.0227
  42981 WAT       -31.4320  -71.4160   -4.5830 O         1 <0>         0.0195
  42982 WAT       -31.4320  -71.4160   -4.3330 O         1 <0>         0.0129
  42983 WAT       -31.4320  -71.4160   -4.0830 O         1 <0>         0.0069
  42984 WAT       -31.4320  -71.4160   -3.8330 O         1 <0>         0.0031
  42985 WAT       -31.4320  -71.4160   -3.5830 O         1 <0>         0.0013
  42986 WAT       -31.4320  -71.4160   -3.3330 O         1 <0>         0.0006
  42987 WAT       -31.4320  -71.4160   -3.0830 O         1 <0>         0.0004
  42988 WAT       -31.4320  -71.4160   -2.8330 O         1 <0>         0.0002
  42989 WAT       -31.4320  -71.4160   -2.5830 O         1 <0>         0.0001
  42990 WAT       -31.4320  -71.4160   -2.3330 O         1 <0>         0.0000
  42991 WAT       -31.4320  -71.4160   -2.0830 O         1 <0>         0.0000
  42992 WAT       -31.4320  -71.4160   -1.8330 O         1 <0>         0.0000
  42993 WAT       -31.4320  -71.4160   -1.5830 O         1 <0>         0.0000
  42994 WAT       -31.4320  -71.4160   -1.3330 O         1 <0>         0.0000
  42995 WAT       -31.4320  -71.4160   -1.0830 O         1 <0>         0.0000
  42996 WAT       -31.4320  -71.4160   -0.8330 O         1 <0>         0.0000
  42997 WAT       -31.4320  -71.4160   -0.5830 O         1 <0>         0.0000
  42998 WAT       -31.4320  -71.4160   -0.3330 O         1 <0>         0.0000
  42999 WAT       -31.4320  -71.4160   -0.0830 O         1 <0>         0.0000
  43000 WAT       -31.4320  -71.1660   -9.8330 O         1 <0>         0.0000
  43001 WAT       -31.4320  -71.1660   -9.5830 O         1 <0>         0.0000
  43002 WAT       -31.4320  -71.1660   -9.3330 O         1 <0>         0.0000
  43003 WAT       -31.4320  -71.1660   -9.0830 O         1 <0>         0.0002
  43004 WAT       -31.4320  -71.1660   -8.8330 O         1 <0>         0.0014
  43005 WAT       -31.4320  -71.1660   -8.5830 O         1 <0>         0.0053
  43006 WAT       -31.4320  -71.1660   -8.3330 O         1 <0>         0.0114
  43007 WAT       -31.4320  -71.1660   -8.0830 O         1 <0>         0.0158
  43008 WAT       -31.4320  -71.1660   -7.8330 O         1 <0>         0.0141
  43009 WAT       -31.4320  -71.1660   -7.5830 O         1 <0>         0.0079
  43010 WAT       -31.4320  -71.1660   -7.3330 O         1 <0>         0.0028
  43011 WAT       -31.4320  -71.1660   -7.0830 O         1 <0>         0.0007
  43012 WAT       -31.4320  -71.1660   -6.8330 O         1 <0>         0.0002
  43013 WAT       -31.4320  -71.1660   -6.5830 O         1 <0>         0.0003
  43014 WAT       -31.4320  -71.1660   -6.3330 O         1 <0>         0.0008
  43015 WAT       -31.4320  -71.1660   -6.0830 O         1 <0>         0.0015
  43016 WAT       -31.4320  -71.1660   -5.8330 O         1 <0>         0.0021
  43017 WAT       -31.4320  -71.1660   -5.5830 O         1 <0>         0.0033
  43018 WAT       -31.4320  -71.1660   -5.3330 O         1 <0>         0.0055
  43019 WAT       -31.4320  -71.1660   -5.0830 O         1 <0>         0.0078
  43020 WAT       -31.4320  -71.1660   -4.8330 O         1 <0>         0.0085
  43021 WAT       -31.4320  -71.1660   -4.5830 O         1 <0>         0.0069
  43022 WAT       -31.4320  -71.1660   -4.3330 O         1 <0>         0.0042
  43023 WAT       -31.4320  -71.1660   -4.0830 O         1 <0>         0.0021
  43024 WAT       -31.4320  -71.1660   -3.8330 O         1 <0>         0.0008
  43025 WAT       -31.4320  -71.1660   -3.5830 O         1 <0>         0.0003
  43026 WAT       -31.4320  -71.1660   -3.3330 O         1 <0>         0.0002
  43027 WAT       -31.4320  -71.1660   -3.0830 O         1 <0>         0.0001
  43028 WAT       -31.4320  -71.1660   -2.8330 O         1 <0>         0.0001
  43029 WAT       -31.4320  -71.1660   -2.5830 O         1 <0>         0.0000
  43030 WAT       -31.4320  -71.1660   -2.3330 O         1 <0>         0.0000
  43031 WAT       -31.4320  -71.1660   -2.0830 O         1 <0>         0.0000
  43032 WAT       -31.4320  -71.1660   -1.8330 O         1 <0>         0.0000
  43033 WAT       -31.4320  -71.1660   -1.5830 O         1 <0>         0.0000
  43034 WAT       -31.4320  -71.1660   -1.3330 O         1 <0>         0.0000
  43035 WAT       -31.4320  -71.1660   -1.0830 O         1 <0>         0.0000
  43036 WAT       -31.4320  -71.1660   -0.8330 O         1 <0>         0.0000
  43037 WAT       -31.4320  -71.1660   -0.5830 O         1 <0>         0.0000
  43038 WAT       -31.4320  -71.1660   -0.3330 O         1 <0>         0.0000
  43039 WAT       -31.4320  -71.1660   -0.0830 O         1 <0>         0.0000
  43040 WAT       -31.4320  -70.9160   -9.8330 O         1 <0>         0.0000
  43041 WAT       -31.4320  -70.9160   -9.5830 O         1 <0>         0.0000
  43042 WAT       -31.4320  -70.9160   -9.3330 O         1 <0>         0.0000
  43043 WAT       -31.4320  -70.9160   -9.0830 O         1 <0>         0.0002
  43044 WAT       -31.4320  -70.9160   -8.8330 O         1 <0>         0.0009
  43045 WAT       -31.4320  -70.9160   -8.5830 O         1 <0>         0.0028
  43046 WAT       -31.4320  -70.9160   -8.3330 O         1 <0>         0.0053
  43047 WAT       -31.4320  -70.9160   -8.0830 O         1 <0>         0.0064
  43048 WAT       -31.4320  -70.9160   -7.8330 O         1 <0>         0.0052
  43049 WAT       -31.4320  -70.9160   -7.5830 O         1 <0>         0.0028
  43050 WAT       -31.4320  -70.9160   -7.3330 O         1 <0>         0.0011
  43051 WAT       -31.4320  -70.9160   -7.0830 O         1 <0>         0.0004
  43052 WAT       -31.4320  -70.9160   -6.8330 O         1 <0>         0.0002
  43053 WAT       -31.4320  -70.9160   -6.5830 O         1 <0>         0.0004
  43054 WAT       -31.4320  -70.9160   -6.3330 O         1 <0>         0.0013
  43055 WAT       -31.4320  -70.9160   -6.0830 O         1 <0>         0.0020
  43056 WAT       -31.4320  -70.9160   -5.8330 O         1 <0>         0.0020
  43057 WAT       -31.4320  -70.9160   -5.5830 O         1 <0>         0.0018
  43058 WAT       -31.4320  -70.9160   -5.3330 O         1 <0>         0.0020
  43059 WAT       -31.4320  -70.9160   -5.0830 O         1 <0>         0.0024
  43060 WAT       -31.4320  -70.9160   -4.8330 O         1 <0>         0.0024
  43061 WAT       -31.4320  -70.9160   -4.5830 O         1 <0>         0.0018
  43062 WAT       -31.4320  -70.9160   -4.3330 O         1 <0>         0.0010
  43063 WAT       -31.4320  -70.9160   -4.0830 O         1 <0>         0.0004
  43064 WAT       -31.4320  -70.9160   -3.8330 O         1 <0>         0.0002
  43065 WAT       -31.4320  -70.9160   -3.5830 O         1 <0>         0.0001
  43066 WAT       -31.4320  -70.9160   -3.3330 O         1 <0>         0.0000
  43067 WAT       -31.4320  -70.9160   -3.0830 O         1 <0>         0.0000
  43068 WAT       -31.4320  -70.9160   -2.8330 O         1 <0>         0.0000
  43069 WAT       -31.4320  -70.9160   -2.5830 O         1 <0>         0.0000
  43070 WAT       -31.4320  -70.9160   -2.3330 O         1 <0>         0.0000
  43071 WAT       -31.4320  -70.9160   -2.0830 O         1 <0>         0.0000
  43072 WAT       -31.4320  -70.9160   -1.8330 O         1 <0>         0.0000
  43073 WAT       -31.4320  -70.9160   -1.5830 O         1 <0>         0.0000
  43074 WAT       -31.4320  -70.9160   -1.3330 O         1 <0>         0.0000
  43075 WAT       -31.4320  -70.9160   -1.0830 O         1 <0>         0.0000
  43076 WAT       -31.4320  -70.9160   -0.8330 O         1 <0>         0.0000
  43077 WAT       -31.4320  -70.9160   -0.5830 O         1 <0>         0.0000
  43078 WAT       -31.4320  -70.9160   -0.3330 O         1 <0>         0.0000
  43079 WAT       -31.4320  -70.9160   -0.0830 O         1 <0>         0.0000
  43080 WAT       -31.4320  -70.6660   -9.8330 O         1 <0>         0.0000
  43081 WAT       -31.4320  -70.6660   -9.5830 O         1 <0>         0.0000
  43082 WAT       -31.4320  -70.6660   -9.3330 O         1 <0>         0.0000
  43083 WAT       -31.4320  -70.6660   -9.0830 O         1 <0>         0.0001
  43084 WAT       -31.4320  -70.6660   -8.8330 O         1 <0>         0.0004
  43085 WAT       -31.4320  -70.6660   -8.5830 O         1 <0>         0.0012
  43086 WAT       -31.4320  -70.6660   -8.3330 O         1 <0>         0.0020
  43087 WAT       -31.4320  -70.6660   -8.0830 O         1 <0>         0.0022
  43088 WAT       -31.4320  -70.6660   -7.8330 O         1 <0>         0.0017
  43089 WAT       -31.4320  -70.6660   -7.5830 O         1 <0>         0.0010
  43090 WAT       -31.4320  -70.6660   -7.3330 O         1 <0>         0.0006
  43091 WAT       -31.4320  -70.6660   -7.0830 O         1 <0>         0.0003
  43092 WAT       -31.4320  -70.6660   -6.8330 O         1 <0>         0.0001
  43093 WAT       -31.4320  -70.6660   -6.5830 O         1 <0>         0.0005
  43094 WAT       -31.4320  -70.6660   -6.3330 O         1 <0>         0.0013
  43095 WAT       -31.4320  -70.6660   -6.0830 O         1 <0>         0.0019
  43096 WAT       -31.4320  -70.6660   -5.8330 O         1 <0>         0.0017
  43097 WAT       -31.4320  -70.6660   -5.5830 O         1 <0>         0.0011
  43098 WAT       -31.4320  -70.6660   -5.3330 O         1 <0>         0.0007
  43099 WAT       -31.4320  -70.6660   -5.0830 O         1 <0>         0.0006
  43100 WAT       -31.4320  -70.6660   -4.8330 O         1 <0>         0.0005
  43101 WAT       -31.4320  -70.6660   -4.5830 O         1 <0>         0.0004
  43102 WAT       -31.4320  -70.6660   -4.3330 O         1 <0>         0.0002
  43103 WAT       -31.4320  -70.6660   -4.0830 O         1 <0>         0.0001
  43104 WAT       -31.4320  -70.6660   -3.8330 O         1 <0>         0.0000
  43105 WAT       -31.4320  -70.6660   -3.5830 O         1 <0>         0.0000
  43106 WAT       -31.4320  -70.6660   -3.3330 O         1 <0>         0.0000
  43107 WAT       -31.4320  -70.6660   -3.0830 O         1 <0>         0.0000
  43108 WAT       -31.4320  -70.6660   -2.8330 O         1 <0>         0.0000
  43109 WAT       -31.4320  -70.6660   -2.5830 O         1 <0>         0.0000
  43110 WAT       -31.4320  -70.6660   -2.3330 O         1 <0>         0.0000
  43111 WAT       -31.4320  -70.6660   -2.0830 O         1 <0>         0.0000
  43112 WAT       -31.4320  -70.6660   -1.8330 O         1 <0>         0.0000
  43113 WAT       -31.4320  -70.6660   -1.5830 O         1 <0>         0.0000
  43114 WAT       -31.4320  -70.6660   -1.3330 O         1 <0>         0.0000
  43115 WAT       -31.4320  -70.6660   -1.0830 O         1 <0>         0.0000
  43116 WAT       -31.4320  -70.6660   -0.8330 O         1 <0>         0.0000
  43117 WAT       -31.4320  -70.6660   -0.5830 O         1 <0>         0.0000
  43118 WAT       -31.4320  -70.6660   -0.3330 O         1 <0>         0.0000
  43119 WAT       -31.4320  -70.6660   -0.0830 O         1 <0>         0.0000
  43120 WAT       -31.4320  -70.4160   -9.8330 O         1 <0>         0.0000
  43121 WAT       -31.4320  -70.4160   -9.5830 O         1 <0>         0.0000
  43122 WAT       -31.4320  -70.4160   -9.3330 O         1 <0>         0.0000
  43123 WAT       -31.4320  -70.4160   -9.0830 O         1 <0>         0.0001
  43124 WAT       -31.4320  -70.4160   -8.8330 O         1 <0>         0.0002
  43125 WAT       -31.4320  -70.4160   -8.5830 O         1 <0>         0.0005
  43126 WAT       -31.4320  -70.4160   -8.3330 O         1 <0>         0.0008
  43127 WAT       -31.4320  -70.4160   -8.0830 O         1 <0>         0.0008
  43128 WAT       -31.4320  -70.4160   -7.8330 O         1 <0>         0.0006
  43129 WAT       -31.4320  -70.4160   -7.5830 O         1 <0>         0.0005
  43130 WAT       -31.4320  -70.4160   -7.3330 O         1 <0>         0.0003
  43131 WAT       -31.4320  -70.4160   -7.0830 O         1 <0>         0.0002
  43132 WAT       -31.4320  -70.4160   -6.8330 O         1 <0>         0.0001
  43133 WAT       -31.4320  -70.4160   -6.5830 O         1 <0>         0.0004
  43134 WAT       -31.4320  -70.4160   -6.3330 O         1 <0>         0.0010
  43135 WAT       -31.4320  -70.4160   -6.0830 O         1 <0>         0.0014
  43136 WAT       -31.4320  -70.4160   -5.8330 O         1 <0>         0.0012
  43137 WAT       -31.4320  -70.4160   -5.5830 O         1 <0>         0.0007
  43138 WAT       -31.4320  -70.4160   -5.3330 O         1 <0>         0.0003
  43139 WAT       -31.4320  -70.4160   -5.0830 O         1 <0>         0.0002
  43140 WAT       -31.4320  -70.4160   -4.8330 O         1 <0>         0.0001
  43141 WAT       -31.4320  -70.4160   -4.5830 O         1 <0>         0.0001
  43142 WAT       -31.4320  -70.4160   -4.3330 O         1 <0>         0.0001
  43143 WAT       -31.4320  -70.4160   -4.0830 O         1 <0>         0.0000
  43144 WAT       -31.4320  -70.4160   -3.8330 O         1 <0>         0.0000
  43145 WAT       -31.4320  -70.4160   -3.5830 O         1 <0>         0.0000
  43146 WAT       -31.4320  -70.4160   -3.3330 O         1 <0>         0.0000
  43147 WAT       -31.4320  -70.4160   -3.0830 O         1 <0>         0.0000
  43148 WAT       -31.4320  -70.4160   -2.8330 O         1 <0>         0.0000
  43149 WAT       -31.4320  -70.4160   -2.5830 O         1 <0>         0.0000
  43150 WAT       -31.4320  -70.4160   -2.3330 O         1 <0>         0.0000
  43151 WAT       -31.4320  -70.4160   -2.0830 O         1 <0>         0.0000
  43152 WAT       -31.4320  -70.4160   -1.8330 O         1 <0>         0.0000
  43153 WAT       -31.4320  -70.4160   -1.5830 O         1 <0>         0.0000
  43154 WAT       -31.4320  -70.4160   -1.3330 O         1 <0>         0.0000
  43155 WAT       -31.4320  -70.4160   -1.0830 O         1 <0>         0.0000
  43156 WAT       -31.4320  -70.4160   -0.8330 O         1 <0>         0.0000
  43157 WAT       -31.4320  -70.4160   -0.5830 O         1 <0>         0.0000
  43158 WAT       -31.4320  -70.4160   -0.3330 O         1 <0>         0.0000
  43159 WAT       -31.4320  -70.4160   -0.0830 O         1 <0>         0.0000
  43160 WAT       -31.4320  -70.1660   -9.8330 O         1 <0>         0.0000
  43161 WAT       -31.4320  -70.1660   -9.5830 O         1 <0>         0.0000
  43162 WAT       -31.4320  -70.1660   -9.3330 O         1 <0>         0.0000
  43163 WAT       -31.4320  -70.1660   -9.0830 O         1 <0>         0.0001
  43164 WAT       -31.4320  -70.1660   -8.8330 O         1 <0>         0.0002
  43165 WAT       -31.4320  -70.1660   -8.5830 O         1 <0>         0.0004
  43166 WAT       -31.4320  -70.1660   -8.3330 O         1 <0>         0.0005
  43167 WAT       -31.4320  -70.1660   -8.0830 O         1 <0>         0.0004
  43168 WAT       -31.4320  -70.1660   -7.8330 O         1 <0>         0.0003
  43169 WAT       -31.4320  -70.1660   -7.5830 O         1 <0>         0.0003
  43170 WAT       -31.4320  -70.1660   -7.3330 O         1 <0>         0.0003
  43171 WAT       -31.4320  -70.1660   -7.0830 O         1 <0>         0.0002
  43172 WAT       -31.4320  -70.1660   -6.8330 O         1 <0>         0.0003
  43173 WAT       -31.4320  -70.1660   -6.5830 O         1 <0>         0.0004
  43174 WAT       -31.4320  -70.1660   -6.3330 O         1 <0>         0.0008
  43175 WAT       -31.4320  -70.1660   -6.0830 O         1 <0>         0.0011
  43176 WAT       -31.4320  -70.1660   -5.8330 O         1 <0>         0.0010
  43177 WAT       -31.4320  -70.1660   -5.5830 O         1 <0>         0.0006
  43178 WAT       -31.4320  -70.1660   -5.3330 O         1 <0>         0.0003
  43179 WAT       -31.4320  -70.1660   -5.0830 O         1 <0>         0.0001
  43180 WAT       -31.4320  -70.1660   -4.8330 O         1 <0>         0.0000
  43181 WAT       -31.4320  -70.1660   -4.5830 O         1 <0>         0.0000
  43182 WAT       -31.4320  -70.1660   -4.3330 O         1 <0>         0.0000
  43183 WAT       -31.4320  -70.1660   -4.0830 O         1 <0>         0.0000
  43184 WAT       -31.4320  -70.1660   -3.8330 O         1 <0>         0.0000
  43185 WAT       -31.4320  -70.1660   -3.5830 O         1 <0>         0.0000
  43186 WAT       -31.4320  -70.1660   -3.3330 O         1 <0>         0.0000
  43187 WAT       -31.4320  -70.1660   -3.0830 O         1 <0>         0.0000
  43188 WAT       -31.4320  -70.1660   -2.8330 O         1 <0>         0.0000
  43189 WAT       -31.4320  -70.1660   -2.5830 O         1 <0>         0.0000
  43190 WAT       -31.4320  -70.1660   -2.3330 O         1 <0>         0.0000
  43191 WAT       -31.4320  -70.1660   -2.0830 O         1 <0>         0.0000
  43192 WAT       -31.4320  -70.1660   -1.8330 O         1 <0>         0.0000
  43193 WAT       -31.4320  -70.1660   -1.5830 O         1 <0>         0.0000
  43194 WAT       -31.4320  -70.1660   -1.3330 O         1 <0>         0.0000
  43195 WAT       -31.4320  -70.1660   -1.0830 O         1 <0>         0.0000
  43196 WAT       -31.4320  -70.1660   -0.8330 O         1 <0>         0.0000
  43197 WAT       -31.4320  -70.1660   -0.5830 O         1 <0>         0.0000
  43198 WAT       -31.4320  -70.1660   -0.3330 O         1 <0>         0.0000
  43199 WAT       -31.4320  -70.1660   -0.0830 O         1 <0>         0.0000
  43200 WAT       -31.4320  -69.9160   -9.8330 O         1 <0>         0.0000
  43201 WAT       -31.4320  -69.9160   -9.5830 O         1 <0>         0.0000
  43202 WAT       -31.4320  -69.9160   -9.3330 O         1 <0>         0.0000
  43203 WAT       -31.4320  -69.9160   -9.0830 O         1 <0>         0.0001
  43204 WAT       -31.4320  -69.9160   -8.8330 O         1 <0>         0.0003
  43205 WAT       -31.4320  -69.9160   -8.5830 O         1 <0>         0.0005
  43206 WAT       -31.4320  -69.9160   -8.3330 O         1 <0>         0.0006
  43207 WAT       -31.4320  -69.9160   -8.0830 O         1 <0>         0.0005
  43208 WAT       -31.4320  -69.9160   -7.8330 O         1 <0>         0.0006
  43209 WAT       -31.4320  -69.9160   -7.5830 O         1 <0>         0.0011
  43210 WAT       -31.4320  -69.9160   -7.3330 O         1 <0>         0.0018
  43211 WAT       -31.4320  -69.9160   -7.0830 O         1 <0>         0.0019
  43212 WAT       -31.4320  -69.9160   -6.8330 O         1 <0>         0.0015
  43213 WAT       -31.4320  -69.9160   -6.5830 O         1 <0>         0.0012
  43214 WAT       -31.4320  -69.9160   -6.3330 O         1 <0>         0.0012
  43215 WAT       -31.4320  -69.9160   -6.0830 O         1 <0>         0.0013
  43216 WAT       -31.4320  -69.9160   -5.8330 O         1 <0>         0.0011
  43217 WAT       -31.4320  -69.9160   -5.5830 O         1 <0>         0.0007
  43218 WAT       -31.4320  -69.9160   -5.3330 O         1 <0>         0.0003
  43219 WAT       -31.4320  -69.9160   -5.0830 O         1 <0>         0.0001
  43220 WAT       -31.4320  -69.9160   -4.8330 O         1 <0>         0.0000
  43221 WAT       -31.4320  -69.9160   -4.5830 O         1 <0>         0.0000
  43222 WAT       -31.4320  -69.9160   -4.3330 O         1 <0>         0.0000
  43223 WAT       -31.4320  -69.9160   -4.0830 O         1 <0>         0.0000
  43224 WAT       -31.4320  -69.9160   -3.8330 O         1 <0>         0.0000
  43225 WAT       -31.4320  -69.9160   -3.5830 O         1 <0>         0.0000
  43226 WAT       -31.4320  -69.9160   -3.3330 O         1 <0>         0.0000
  43227 WAT       -31.4320  -69.9160   -3.0830 O         1 <0>         0.0000
  43228 WAT       -31.4320  -69.9160   -2.8330 O         1 <0>         0.0000
  43229 WAT       -31.4320  -69.9160   -2.5830 O         1 <0>         0.0000
  43230 WAT       -31.4320  -69.9160   -2.3330 O         1 <0>         0.0000
  43231 WAT       -31.4320  -69.9160   -2.0830 O         1 <0>         0.0000
  43232 WAT       -31.4320  -69.9160   -1.8330 O         1 <0>         0.0000
  43233 WAT       -31.4320  -69.9160   -1.5830 O         1 <0>         0.0000
  43234 WAT       -31.4320  -69.9160   -1.3330 O         1 <0>         0.0000
  43235 WAT       -31.4320  -69.9160   -1.0830 O         1 <0>         0.0000
  43236 WAT       -31.4320  -69.9160   -0.8330 O         1 <0>         0.0000
  43237 WAT       -31.4320  -69.9160   -0.5830 O         1 <0>         0.0000
  43238 WAT       -31.4320  -69.9160   -0.3330 O         1 <0>         0.0000
  43239 WAT       -31.4320  -69.9160   -0.0830 O         1 <0>         0.0000
  43240 WAT       -31.4320  -69.6660   -9.8330 O         1 <0>         0.0000
  43241 WAT       -31.4320  -69.6660   -9.5830 O         1 <0>         0.0000
  43242 WAT       -31.4320  -69.6660   -9.3330 O         1 <0>         0.0000
  43243 WAT       -31.4320  -69.6660   -9.0830 O         1 <0>         0.0001
  43244 WAT       -31.4320  -69.6660   -8.8330 O         1 <0>         0.0004
  43245 WAT       -31.4320  -69.6660   -8.5830 O         1 <0>         0.0007
  43246 WAT       -31.4320  -69.6660   -8.3330 O         1 <0>         0.0009
  43247 WAT       -31.4320  -69.6660   -8.0830 O         1 <0>         0.0013
  43248 WAT       -31.4320  -69.6660   -7.8330 O         1 <0>         0.0029
  43249 WAT       -31.4320  -69.6660   -7.5830 O         1 <0>         0.0064
  43250 WAT       -31.4320  -69.6660   -7.3330 O         1 <0>         0.0097
  43251 WAT       -31.4320  -69.6660   -7.0830 O         1 <0>         0.0101
  43252 WAT       -31.4320  -69.6660   -6.8330 O         1 <0>         0.0075
  43253 WAT       -31.4320  -69.6660   -6.5830 O         1 <0>         0.0042
  43254 WAT       -31.4320  -69.6660   -6.3330 O         1 <0>         0.0024
  43255 WAT       -31.4320  -69.6660   -6.0830 O         1 <0>         0.0017
  43256 WAT       -31.4320  -69.6660   -5.8330 O         1 <0>         0.0013
  43257 WAT       -31.4320  -69.6660   -5.5830 O         1 <0>         0.0008
  43258 WAT       -31.4320  -69.6660   -5.3330 O         1 <0>         0.0003
  43259 WAT       -31.4320  -69.6660   -5.0830 O         1 <0>         0.0001
  43260 WAT       -31.4320  -69.6660   -4.8330 O         1 <0>         0.0000
  43261 WAT       -31.4320  -69.6660   -4.5830 O         1 <0>         0.0000
  43262 WAT       -31.4320  -69.6660   -4.3330 O         1 <0>         0.0000
  43263 WAT       -31.4320  -69.6660   -4.0830 O         1 <0>         0.0000
  43264 WAT       -31.4320  -69.6660   -3.8330 O         1 <0>         0.0000
  43265 WAT       -31.4320  -69.6660   -3.5830 O         1 <0>         0.0000
  43266 WAT       -31.4320  -69.6660   -3.3330 O         1 <0>         0.0000
  43267 WAT       -31.4320  -69.6660   -3.0830 O         1 <0>         0.0000
  43268 WAT       -31.4320  -69.6660   -2.8330 O         1 <0>         0.0000
  43269 WAT       -31.4320  -69.6660   -2.5830 O         1 <0>         0.0000
  43270 WAT       -31.4320  -69.6660   -2.3330 O         1 <0>         0.0000
  43271 WAT       -31.4320  -69.6660   -2.0830 O         1 <0>         0.0000
  43272 WAT       -31.4320  -69.6660   -1.8330 O         1 <0>         0.0000
  43273 WAT       -31.4320  -69.6660   -1.5830 O         1 <0>         0.0000
  43274 WAT       -31.4320  -69.6660   -1.3330 O         1 <0>         0.0000
  43275 WAT       -31.4320  -69.6660   -1.0830 O         1 <0>         0.0000
  43276 WAT       -31.4320  -69.6660   -0.8330 O         1 <0>         0.0000
  43277 WAT       -31.4320  -69.6660   -0.5830 O         1 <0>         0.0000
  43278 WAT       -31.4320  -69.6660   -0.3330 O         1 <0>         0.0000
  43279 WAT       -31.4320  -69.6660   -0.0830 O         1 <0>         0.0000
  43280 WAT       -31.4320  -69.4160   -9.8330 O         1 <0>         0.0000
  43281 WAT       -31.4320  -69.4160   -9.5830 O         1 <0>         0.0000
  43282 WAT       -31.4320  -69.4160   -9.3330 O         1 <0>         0.0000
  43283 WAT       -31.4320  -69.4160   -9.0830 O         1 <0>         0.0001
  43284 WAT       -31.4320  -69.4160   -8.8330 O         1 <0>         0.0004
  43285 WAT       -31.4320  -69.4160   -8.5830 O         1 <0>         0.0008
  43286 WAT       -31.4320  -69.4160   -8.3330 O         1 <0>         0.0013
  43287 WAT       -31.4320  -69.4160   -8.0830 O         1 <0>         0.0029
  43288 WAT       -31.4320  -69.4160   -7.8330 O         1 <0>         0.0080
  43289 WAT       -31.4320  -69.4160   -7.5830 O         1 <0>         0.0171
  43290 WAT       -31.4320  -69.4160   -7.3330 O         1 <0>         0.0256
  43291 WAT       -31.4320  -69.4160   -7.0830 O         1 <0>         0.0267
  43292 WAT       -31.4320  -69.4160   -6.8330 O         1 <0>         0.0195
  43293 WAT       -31.4320  -69.4160   -6.5830 O         1 <0>         0.0104
  43294 WAT       -31.4320  -69.4160   -6.3330 O         1 <0>         0.0045
  43295 WAT       -31.4320  -69.4160   -6.0830 O         1 <0>         0.0022
  43296 WAT       -31.4320  -69.4160   -5.8330 O         1 <0>         0.0013
  43297 WAT       -31.4320  -69.4160   -5.5830 O         1 <0>         0.0007
  43298 WAT       -31.4320  -69.4160   -5.3330 O         1 <0>         0.0003
  43299 WAT       -31.4320  -69.4160   -5.0830 O         1 <0>         0.0001
  43300 WAT       -31.4320  -69.4160   -4.8330 O         1 <0>         0.0000
  43301 WAT       -31.4320  -69.4160   -4.5830 O         1 <0>         0.0000
  43302 WAT       -31.4320  -69.4160   -4.3330 O         1 <0>         0.0000
  43303 WAT       -31.4320  -69.4160   -4.0830 O         1 <0>         0.0000
  43304 WAT       -31.4320  -69.4160   -3.8330 O         1 <0>         0.0000
  43305 WAT       -31.4320  -69.4160   -3.5830 O         1 <0>         0.0000
  43306 WAT       -31.4320  -69.4160   -3.3330 O         1 <0>         0.0000
  43307 WAT       -31.4320  -69.4160   -3.0830 O         1 <0>         0.0000
  43308 WAT       -31.4320  -69.4160   -2.8330 O         1 <0>         0.0000
  43309 WAT       -31.4320  -69.4160   -2.5830 O         1 <0>         0.0000
  43310 WAT       -31.4320  -69.4160   -2.3330 O         1 <0>         0.0000
  43311 WAT       -31.4320  -69.4160   -2.0830 O         1 <0>         0.0000
  43312 WAT       -31.4320  -69.4160   -1.8330 O         1 <0>         0.0000
  43313 WAT       -31.4320  -69.4160   -1.5830 O         1 <0>         0.0000
  43314 WAT       -31.4320  -69.4160   -1.3330 O         1 <0>         0.0000
  43315 WAT       -31.4320  -69.4160   -1.0830 O         1 <0>         0.0000
  43316 WAT       -31.4320  -69.4160   -0.8330 O         1 <0>         0.0000
  43317 WAT       -31.4320  -69.4160   -0.5830 O         1 <0>         0.0000
  43318 WAT       -31.4320  -69.4160   -0.3330 O         1 <0>         0.0000
  43319 WAT       -31.4320  -69.4160   -0.0830 O         1 <0>         0.0000
  43320 WAT       -31.4320  -69.1660   -9.8330 O         1 <0>         0.0000
  43321 WAT       -31.4320  -69.1660   -9.5830 O         1 <0>         0.0000
  43322 WAT       -31.4320  -69.1660   -9.3330 O         1 <0>         0.0000
  43323 WAT       -31.4320  -69.1660   -9.0830 O         1 <0>         0.0001
  43324 WAT       -31.4320  -69.1660   -8.8330 O         1 <0>         0.0003
  43325 WAT       -31.4320  -69.1660   -8.5830 O         1 <0>         0.0007
  43326 WAT       -31.4320  -69.1660   -8.3330 O         1 <0>         0.0015
  43327 WAT       -31.4320  -69.1660   -8.0830 O         1 <0>         0.0043
  43328 WAT       -31.4320  -69.1660   -7.8330 O         1 <0>         0.0125
  43329 WAT       -31.4320  -69.1660   -7.5830 O         1 <0>         0.0269
  43330 WAT       -31.4320  -69.1660   -7.3330 O         1 <0>         0.0404
  43331 WAT       -31.4320  -69.1660   -7.0830 O         1 <0>         0.0420
  43332 WAT       -31.4320  -69.1660   -6.8330 O         1 <0>         0.0306
  43333 WAT       -31.4320  -69.1660   -6.5830 O         1 <0>         0.0159
  43334 WAT       -31.4320  -69.1660   -6.3330 O         1 <0>         0.0063
  43335 WAT       -31.4320  -69.1660   -6.0830 O         1 <0>         0.0024
  43336 WAT       -31.4320  -69.1660   -5.8330 O         1 <0>         0.0012
  43337 WAT       -31.4320  -69.1660   -5.5830 O         1 <0>         0.0006
  43338 WAT       -31.4320  -69.1660   -5.3330 O         1 <0>         0.0002
  43339 WAT       -31.4320  -69.1660   -5.0830 O         1 <0>         0.0000
  43340 WAT       -31.4320  -69.1660   -4.8330 O         1 <0>         0.0000
  43341 WAT       -31.4320  -69.1660   -4.5830 O         1 <0>         0.0000
  43342 WAT       -31.4320  -69.1660   -4.3330 O         1 <0>         0.0000
  43343 WAT       -31.4320  -69.1660   -4.0830 O         1 <0>         0.0000
  43344 WAT       -31.4320  -69.1660   -3.8330 O         1 <0>         0.0000
  43345 WAT       -31.4320  -69.1660   -3.5830 O         1 <0>         0.0000
  43346 WAT       -31.4320  -69.1660   -3.3330 O         1 <0>         0.0000
  43347 WAT       -31.4320  -69.1660   -3.0830 O         1 <0>         0.0000
  43348 WAT       -31.4320  -69.1660   -2.8330 O         1 <0>         0.0000
  43349 WAT       -31.4320  -69.1660   -2.5830 O         1 <0>         0.0000
  43350 WAT       -31.4320  -69.1660   -2.3330 O         1 <0>         0.0000
  43351 WAT       -31.4320  -69.1660   -2.0830 O         1 <0>         0.0000
  43352 WAT       -31.4320  -69.1660   -1.8330 O         1 <0>         0.0000
  43353 WAT       -31.4320  -69.1660   -1.5830 O         1 <0>         0.0000
  43354 WAT       -31.4320  -69.1660   -1.3330 O         1 <0>         0.0000
  43355 WAT       -31.4320  -69.1660   -1.0830 O         1 <0>         0.0000
  43356 WAT       -31.4320  -69.1660   -0.8330 O         1 <0>         0.0000
  43357 WAT       -31.4320  -69.1660   -0.5830 O         1 <0>         0.0000
  43358 WAT       -31.4320  -69.1660   -0.3330 O         1 <0>         0.0000
  43359 WAT       -31.4320  -69.1660   -0.0830 O         1 <0>         0.0000
  43360 WAT       -31.4320  -68.9160   -9.8330 O         1 <0>         0.0000
  43361 WAT       -31.4320  -68.9160   -9.5830 O         1 <0>         0.0000
  43362 WAT       -31.4320  -68.9160   -9.3330 O         1 <0>         0.0000
  43363 WAT       -31.4320  -68.9160   -9.0830 O         1 <0>         0.0001
  43364 WAT       -31.4320  -68.9160   -8.8330 O         1 <0>         0.0002
  43365 WAT       -31.4320  -68.9160   -8.5830 O         1 <0>         0.0005
  43366 WAT       -31.4320  -68.9160   -8.3330 O         1 <0>         0.0012
  43367 WAT       -31.4320  -68.9160   -8.0830 O         1 <0>         0.0038
  43368 WAT       -31.4320  -68.9160   -7.8330 O         1 <0>         0.0116
  43369 WAT       -31.4320  -68.9160   -7.5830 O         1 <0>         0.0254
  43370 WAT       -31.4320  -68.9160   -7.3330 O         1 <0>         0.0385
  43371 WAT       -31.4320  -68.9160   -7.0830 O         1 <0>         0.0401
  43372 WAT       -31.4320  -68.9160   -6.8330 O         1 <0>         0.0290
  43373 WAT       -31.4320  -68.9160   -6.5830 O         1 <0>         0.0148
  43374 WAT       -31.4320  -68.9160   -6.3330 O         1 <0>         0.0056
  43375 WAT       -31.4320  -68.9160   -6.0830 O         1 <0>         0.0019
  43376 WAT       -31.4320  -68.9160   -5.8330 O         1 <0>         0.0008
  43377 WAT       -31.4320  -68.9160   -5.5830 O         1 <0>         0.0004
  43378 WAT       -31.4320  -68.9160   -5.3330 O         1 <0>         0.0001
  43379 WAT       -31.4320  -68.9160   -5.0830 O         1 <0>         0.0000
  43380 WAT       -31.4320  -68.9160   -4.8330 O         1 <0>         0.0000
  43381 WAT       -31.4320  -68.9160   -4.5830 O         1 <0>         0.0000
  43382 WAT       -31.4320  -68.9160   -4.3330 O         1 <0>         0.0000
  43383 WAT       -31.4320  -68.9160   -4.0830 O         1 <0>         0.0000
  43384 WAT       -31.4320  -68.9160   -3.8330 O         1 <0>         0.0000
  43385 WAT       -31.4320  -68.9160   -3.5830 O         1 <0>         0.0000
  43386 WAT       -31.4320  -68.9160   -3.3330 O         1 <0>         0.0000
  43387 WAT       -31.4320  -68.9160   -3.0830 O         1 <0>         0.0000
  43388 WAT       -31.4320  -68.9160   -2.8330 O         1 <0>         0.0000
  43389 WAT       -31.4320  -68.9160   -2.5830 O         1 <0>         0.0000
  43390 WAT       -31.4320  -68.9160   -2.3330 O         1 <0>         0.0000
  43391 WAT       -31.4320  -68.9160   -2.0830 O         1 <0>         0.0000
  43392 WAT       -31.4320  -68.9160   -1.8330 O         1 <0>         0.0000
  43393 WAT       -31.4320  -68.9160   -1.5830 O         1 <0>         0.0000
  43394 WAT       -31.4320  -68.9160   -1.3330 O         1 <0>         0.0000
  43395 WAT       -31.4320  -68.9160   -1.0830 O         1 <0>         0.0000
  43396 WAT       -31.4320  -68.9160   -0.8330 O         1 <0>         0.0000
  43397 WAT       -31.4320  -68.9160   -0.5830 O         1 <0>         0.0000
  43398 WAT       -31.4320  -68.9160   -0.3330 O         1 <0>         0.0000
  43399 WAT       -31.4320  -68.9160   -0.0830 O         1 <0>         0.0000
  43400 WAT       -31.1820  -77.4160   -9.8330 O         1 <0>         0.0000
  43401 WAT       -31.1820  -77.4160   -9.5830 O         1 <0>         0.0000
  43402 WAT       -31.1820  -77.4160   -9.3330 O         1 <0>         0.0000
  43403 WAT       -31.1820  -77.4160   -9.0830 O         1 <0>         0.0000
  43404 WAT       -31.1820  -77.4160   -8.8330 O         1 <0>         0.0000
  43405 WAT       -31.1820  -77.4160   -8.5830 O         1 <0>         0.0000
  43406 WAT       -31.1820  -77.4160   -8.3330 O         1 <0>         0.0000
  43407 WAT       -31.1820  -77.4160   -8.0830 O         1 <0>         0.0000
  43408 WAT       -31.1820  -77.4160   -7.8330 O         1 <0>         0.0000
  43409 WAT       -31.1820  -77.4160   -7.5830 O         1 <0>         0.0000
  43410 WAT       -31.1820  -77.4160   -7.3330 O         1 <0>         0.0000
  43411 WAT       -31.1820  -77.4160   -7.0830 O         1 <0>         0.0000
  43412 WAT       -31.1820  -77.4160   -6.8330 O         1 <0>         0.0000
  43413 WAT       -31.1820  -77.4160   -6.5830 O         1 <0>         0.0000
  43414 WAT       -31.1820  -77.4160   -6.3330 O         1 <0>         0.0000
  43415 WAT       -31.1820  -77.4160   -6.0830 O         1 <0>         0.0000
  43416 WAT       -31.1820  -77.4160   -5.8330 O         1 <0>         0.0000
  43417 WAT       -31.1820  -77.4160   -5.5830 O         1 <0>         0.0000
  43418 WAT       -31.1820  -77.4160   -5.3330 O         1 <0>         0.0000
  43419 WAT       -31.1820  -77.4160   -5.0830 O         1 <0>         0.0000
  43420 WAT       -31.1820  -77.4160   -4.8330 O         1 <0>         0.0000
  43421 WAT       -31.1820  -77.4160   -4.5830 O         1 <0>         0.0000
  43422 WAT       -31.1820  -77.4160   -4.3330 O         1 <0>         0.0000
  43423 WAT       -31.1820  -77.4160   -4.0830 O         1 <0>         0.0000
  43424 WAT       -31.1820  -77.4160   -3.8330 O         1 <0>         0.0000
  43425 WAT       -31.1820  -77.4160   -3.5830 O         1 <0>         0.0000
  43426 WAT       -31.1820  -77.4160   -3.3330 O         1 <0>         0.0000
  43427 WAT       -31.1820  -77.4160   -3.0830 O         1 <0>         0.0000
  43428 WAT       -31.1820  -77.4160   -2.8330 O         1 <0>         0.0000
  43429 WAT       -31.1820  -77.4160   -2.5830 O         1 <0>         0.0000
  43430 WAT       -31.1820  -77.4160   -2.3330 O         1 <0>         0.0000
  43431 WAT       -31.1820  -77.4160   -2.0830 O         1 <0>         0.0000
  43432 WAT       -31.1820  -77.4160   -1.8330 O         1 <0>         0.0000
  43433 WAT       -31.1820  -77.4160   -1.5830 O         1 <0>         0.0000
  43434 WAT       -31.1820  -77.4160   -1.3330 O         1 <0>         0.0000
  43435 WAT       -31.1820  -77.4160   -1.0830 O         1 <0>         0.0000
  43436 WAT       -31.1820  -77.4160   -0.8330 O         1 <0>         0.0000
  43437 WAT       -31.1820  -77.4160   -0.5830 O         1 <0>         0.0000
  43438 WAT       -31.1820  -77.4160   -0.3330 O         1 <0>         0.0000
  43439 WAT       -31.1820  -77.4160   -0.0830 O         1 <0>         0.0000
  43440 WAT       -31.1820  -77.1660   -9.8330 O         1 <0>         0.0000
  43441 WAT       -31.1820  -77.1660   -9.5830 O         1 <0>         0.0000
  43442 WAT       -31.1820  -77.1660   -9.3330 O         1 <0>         0.0000
  43443 WAT       -31.1820  -77.1660   -9.0830 O         1 <0>         0.0000
  43444 WAT       -31.1820  -77.1660   -8.8330 O         1 <0>         0.0000
  43445 WAT       -31.1820  -77.1660   -8.5830 O         1 <0>         0.0000
  43446 WAT       -31.1820  -77.1660   -8.3330 O         1 <0>         0.0000
  43447 WAT       -31.1820  -77.1660   -8.0830 O         1 <0>         0.0000
  43448 WAT       -31.1820  -77.1660   -7.8330 O         1 <0>         0.0000
  43449 WAT       -31.1820  -77.1660   -7.5830 O         1 <0>         0.0000
  43450 WAT       -31.1820  -77.1660   -7.3330 O         1 <0>         0.0000
  43451 WAT       -31.1820  -77.1660   -7.0830 O         1 <0>         0.0000
  43452 WAT       -31.1820  -77.1660   -6.8330 O         1 <0>         0.0000
  43453 WAT       -31.1820  -77.1660   -6.5830 O         1 <0>         0.0000
  43454 WAT       -31.1820  -77.1660   -6.3330 O         1 <0>         0.0000
  43455 WAT       -31.1820  -77.1660   -6.0830 O         1 <0>         0.0000
  43456 WAT       -31.1820  -77.1660   -5.8330 O         1 <0>         0.0000
  43457 WAT       -31.1820  -77.1660   -5.5830 O         1 <0>         0.0000
  43458 WAT       -31.1820  -77.1660   -5.3330 O         1 <0>         0.0000
  43459 WAT       -31.1820  -77.1660   -5.0830 O         1 <0>         0.0000
  43460 WAT       -31.1820  -77.1660   -4.8330 O         1 <0>         0.0000
  43461 WAT       -31.1820  -77.1660   -4.5830 O         1 <0>         0.0000
  43462 WAT       -31.1820  -77.1660   -4.3330 O         1 <0>         0.0000
  43463 WAT       -31.1820  -77.1660   -4.0830 O         1 <0>         0.0000
  43464 WAT       -31.1820  -77.1660   -3.8330 O         1 <0>         0.0000
  43465 WAT       -31.1820  -77.1660   -3.5830 O         1 <0>         0.0000
  43466 WAT       -31.1820  -77.1660   -3.3330 O         1 <0>         0.0000
  43467 WAT       -31.1820  -77.1660   -3.0830 O         1 <0>         0.0000
  43468 WAT       -31.1820  -77.1660   -2.8330 O         1 <0>         0.0000
  43469 WAT       -31.1820  -77.1660   -2.5830 O         1 <0>         0.0000
  43470 WAT       -31.1820  -77.1660   -2.3330 O         1 <0>         0.0000
  43471 WAT       -31.1820  -77.1660   -2.0830 O         1 <0>         0.0000
  43472 WAT       -31.1820  -77.1660   -1.8330 O         1 <0>         0.0000
  43473 WAT       -31.1820  -77.1660   -1.5830 O         1 <0>         0.0000
  43474 WAT       -31.1820  -77.1660   -1.3330 O         1 <0>         0.0000
  43475 WAT       -31.1820  -77.1660   -1.0830 O         1 <0>         0.0000
  43476 WAT       -31.1820  -77.1660   -0.8330 O         1 <0>         0.0000
  43477 WAT       -31.1820  -77.1660   -0.5830 O         1 <0>         0.0000
  43478 WAT       -31.1820  -77.1660   -0.3330 O         1 <0>         0.0000
  43479 WAT       -31.1820  -77.1660   -0.0830 O         1 <0>         0.0000
  43480 WAT       -31.1820  -76.9160   -9.8330 O         1 <0>         0.0000
  43481 WAT       -31.1820  -76.9160   -9.5830 O         1 <0>         0.0000
  43482 WAT       -31.1820  -76.9160   -9.3330 O         1 <0>         0.0000
  43483 WAT       -31.1820  -76.9160   -9.0830 O         1 <0>         0.0000
  43484 WAT       -31.1820  -76.9160   -8.8330 O         1 <0>         0.0000
  43485 WAT       -31.1820  -76.9160   -8.5830 O         1 <0>         0.0000
  43486 WAT       -31.1820  -76.9160   -8.3330 O         1 <0>         0.0000
  43487 WAT       -31.1820  -76.9160   -8.0830 O         1 <0>         0.0000
  43488 WAT       -31.1820  -76.9160   -7.8330 O         1 <0>         0.0000
  43489 WAT       -31.1820  -76.9160   -7.5830 O         1 <0>         0.0000
  43490 WAT       -31.1820  -76.9160   -7.3330 O         1 <0>         0.0000
  43491 WAT       -31.1820  -76.9160   -7.0830 O         1 <0>         0.0000
  43492 WAT       -31.1820  -76.9160   -6.8330 O         1 <0>         0.0000
  43493 WAT       -31.1820  -76.9160   -6.5830 O         1 <0>         0.0000
  43494 WAT       -31.1820  -76.9160   -6.3330 O         1 <0>         0.0000
  43495 WAT       -31.1820  -76.9160   -6.0830 O         1 <0>         0.0000
  43496 WAT       -31.1820  -76.9160   -5.8330 O         1 <0>         0.0000
  43497 WAT       -31.1820  -76.9160   -5.5830 O         1 <0>         0.0000
  43498 WAT       -31.1820  -76.9160   -5.3330 O         1 <0>         0.0000
  43499 WAT       -31.1820  -76.9160   -5.0830 O         1 <0>         0.0000
  43500 WAT       -31.1820  -76.9160   -4.8330 O         1 <0>         0.0000
  43501 WAT       -31.1820  -76.9160   -4.5830 O         1 <0>         0.0000
  43502 WAT       -31.1820  -76.9160   -4.3330 O         1 <0>         0.0000
  43503 WAT       -31.1820  -76.9160   -4.0830 O         1 <0>         0.0000
  43504 WAT       -31.1820  -76.9160   -3.8330 O         1 <0>         0.0000
  43505 WAT       -31.1820  -76.9160   -3.5830 O         1 <0>         0.0000
  43506 WAT       -31.1820  -76.9160   -3.3330 O         1 <0>         0.0000
  43507 WAT       -31.1820  -76.9160   -3.0830 O         1 <0>         0.0000
  43508 WAT       -31.1820  -76.9160   -2.8330 O         1 <0>         0.0000
  43509 WAT       -31.1820  -76.9160   -2.5830 O         1 <0>         0.0000
  43510 WAT       -31.1820  -76.9160   -2.3330 O         1 <0>         0.0000
  43511 WAT       -31.1820  -76.9160   -2.0830 O         1 <0>         0.0000
  43512 WAT       -31.1820  -76.9160   -1.8330 O         1 <0>         0.0000
  43513 WAT       -31.1820  -76.9160   -1.5830 O         1 <0>         0.0000
  43514 WAT       -31.1820  -76.9160   -1.3330 O         1 <0>         0.0000
  43515 WAT       -31.1820  -76.9160   -1.0830 O         1 <0>         0.0000
  43516 WAT       -31.1820  -76.9160   -0.8330 O         1 <0>         0.0000
  43517 WAT       -31.1820  -76.9160   -0.5830 O         1 <0>         0.0000
  43518 WAT       -31.1820  -76.9160   -0.3330 O         1 <0>         0.0000
  43519 WAT       -31.1820  -76.9160   -0.0830 O         1 <0>         0.0000
  43520 WAT       -31.1820  -76.6660   -9.8330 O         1 <0>         0.0000
  43521 WAT       -31.1820  -76.6660   -9.5830 O         1 <0>         0.0000
  43522 WAT       -31.1820  -76.6660   -9.3330 O         1 <0>         0.0000
  43523 WAT       -31.1820  -76.6660   -9.0830 O         1 <0>         0.0000
  43524 WAT       -31.1820  -76.6660   -8.8330 O         1 <0>         0.0000
  43525 WAT       -31.1820  -76.6660   -8.5830 O         1 <0>         0.0000
  43526 WAT       -31.1820  -76.6660   -8.3330 O         1 <0>         0.0000
  43527 WAT       -31.1820  -76.6660   -8.0830 O         1 <0>         0.0000
  43528 WAT       -31.1820  -76.6660   -7.8330 O         1 <0>         0.0000
  43529 WAT       -31.1820  -76.6660   -7.5830 O         1 <0>         0.0000
  43530 WAT       -31.1820  -76.6660   -7.3330 O         1 <0>         0.0000
  43531 WAT       -31.1820  -76.6660   -7.0830 O         1 <0>         0.0000
  43532 WAT       -31.1820  -76.6660   -6.8330 O         1 <0>         0.0000
  43533 WAT       -31.1820  -76.6660   -6.5830 O         1 <0>         0.0000
  43534 WAT       -31.1820  -76.6660   -6.3330 O         1 <0>         0.0000
  43535 WAT       -31.1820  -76.6660   -6.0830 O         1 <0>         0.0000
  43536 WAT       -31.1820  -76.6660   -5.8330 O         1 <0>         0.0000
  43537 WAT       -31.1820  -76.6660   -5.5830 O         1 <0>         0.0000
  43538 WAT       -31.1820  -76.6660   -5.3330 O         1 <0>         0.0000
  43539 WAT       -31.1820  -76.6660   -5.0830 O         1 <0>         0.0000
  43540 WAT       -31.1820  -76.6660   -4.8330 O         1 <0>         0.0000
  43541 WAT       -31.1820  -76.6660   -4.5830 O         1 <0>         0.0000
  43542 WAT       -31.1820  -76.6660   -4.3330 O         1 <0>         0.0000
  43543 WAT       -31.1820  -76.6660   -4.0830 O         1 <0>         0.0000
  43544 WAT       -31.1820  -76.6660   -3.8330 O         1 <0>         0.0000
  43545 WAT       -31.1820  -76.6660   -3.5830 O         1 <0>         0.0000
  43546 WAT       -31.1820  -76.6660   -3.3330 O         1 <0>         0.0000
  43547 WAT       -31.1820  -76.6660   -3.0830 O         1 <0>         0.0000
  43548 WAT       -31.1820  -76.6660   -2.8330 O         1 <0>         0.0000
  43549 WAT       -31.1820  -76.6660   -2.5830 O         1 <0>         0.0000
  43550 WAT       -31.1820  -76.6660   -2.3330 O         1 <0>         0.0000
  43551 WAT       -31.1820  -76.6660   -2.0830 O         1 <0>         0.0000
  43552 WAT       -31.1820  -76.6660   -1.8330 O         1 <0>         0.0000
  43553 WAT       -31.1820  -76.6660   -1.5830 O         1 <0>         0.0000
  43554 WAT       -31.1820  -76.6660   -1.3330 O         1 <0>         0.0000
  43555 WAT       -31.1820  -76.6660   -1.0830 O         1 <0>         0.0000
  43556 WAT       -31.1820  -76.6660   -0.8330 O         1 <0>         0.0000
  43557 WAT       -31.1820  -76.6660   -0.5830 O         1 <0>         0.0000
  43558 WAT       -31.1820  -76.6660   -0.3330 O         1 <0>         0.0000
  43559 WAT       -31.1820  -76.6660   -0.0830 O         1 <0>         0.0000
  43560 WAT       -31.1820  -76.4160   -9.8330 O         1 <0>         0.0000
  43561 WAT       -31.1820  -76.4160   -9.5830 O         1 <0>         0.0000
  43562 WAT       -31.1820  -76.4160   -9.3330 O         1 <0>         0.0000
  43563 WAT       -31.1820  -76.4160   -9.0830 O         1 <0>         0.0000
  43564 WAT       -31.1820  -76.4160   -8.8330 O         1 <0>         0.0000
  43565 WAT       -31.1820  -76.4160   -8.5830 O         1 <0>         0.0000
  43566 WAT       -31.1820  -76.4160   -8.3330 O         1 <0>         0.0000
  43567 WAT       -31.1820  -76.4160   -8.0830 O         1 <0>         0.0000
  43568 WAT       -31.1820  -76.4160   -7.8330 O         1 <0>         0.0000
  43569 WAT       -31.1820  -76.4160   -7.5830 O         1 <0>         0.0000
  43570 WAT       -31.1820  -76.4160   -7.3330 O         1 <0>         0.0000
  43571 WAT       -31.1820  -76.4160   -7.0830 O         1 <0>         0.0000
  43572 WAT       -31.1820  -76.4160   -6.8330 O         1 <0>         0.0000
  43573 WAT       -31.1820  -76.4160   -6.5830 O         1 <0>         0.0000
  43574 WAT       -31.1820  -76.4160   -6.3330 O         1 <0>         0.0000
  43575 WAT       -31.1820  -76.4160   -6.0830 O         1 <0>         0.0000
  43576 WAT       -31.1820  -76.4160   -5.8330 O         1 <0>         0.0000
  43577 WAT       -31.1820  -76.4160   -5.5830 O         1 <0>         0.0000
  43578 WAT       -31.1820  -76.4160   -5.3330 O         1 <0>         0.0000
  43579 WAT       -31.1820  -76.4160   -5.0830 O         1 <0>         0.0000
  43580 WAT       -31.1820  -76.4160   -4.8330 O         1 <0>         0.0000
  43581 WAT       -31.1820  -76.4160   -4.5830 O         1 <0>         0.0000
  43582 WAT       -31.1820  -76.4160   -4.3330 O         1 <0>         0.0000
  43583 WAT       -31.1820  -76.4160   -4.0830 O         1 <0>         0.0000
  43584 WAT       -31.1820  -76.4160   -3.8330 O         1 <0>         0.0000
  43585 WAT       -31.1820  -76.4160   -3.5830 O         1 <0>         0.0000
  43586 WAT       -31.1820  -76.4160   -3.3330 O         1 <0>         0.0000
  43587 WAT       -31.1820  -76.4160   -3.0830 O         1 <0>         0.0000
  43588 WAT       -31.1820  -76.4160   -2.8330 O         1 <0>         0.0000
  43589 WAT       -31.1820  -76.4160   -2.5830 O         1 <0>         0.0000
  43590 WAT       -31.1820  -76.4160   -2.3330 O         1 <0>         0.0000
  43591 WAT       -31.1820  -76.4160   -2.0830 O         1 <0>         0.0000
  43592 WAT       -31.1820  -76.4160   -1.8330 O         1 <0>         0.0000
  43593 WAT       -31.1820  -76.4160   -1.5830 O         1 <0>         0.0000
  43594 WAT       -31.1820  -76.4160   -1.3330 O         1 <0>         0.0000
  43595 WAT       -31.1820  -76.4160   -1.0830 O         1 <0>         0.0000
  43596 WAT       -31.1820  -76.4160   -0.8330 O         1 <0>         0.0000
  43597 WAT       -31.1820  -76.4160   -0.5830 O         1 <0>         0.0000
  43598 WAT       -31.1820  -76.4160   -0.3330 O         1 <0>         0.0000
  43599 WAT       -31.1820  -76.4160   -0.0830 O         1 <0>         0.0000
  43600 WAT       -31.1820  -76.1660   -9.8330 O         1 <0>         0.0000
  43601 WAT       -31.1820  -76.1660   -9.5830 O         1 <0>         0.0000
  43602 WAT       -31.1820  -76.1660   -9.3330 O         1 <0>         0.0000
  43603 WAT       -31.1820  -76.1660   -9.0830 O         1 <0>         0.0000
  43604 WAT       -31.1820  -76.1660   -8.8330 O         1 <0>         0.0000
  43605 WAT       -31.1820  -76.1660   -8.5830 O         1 <0>         0.0000
  43606 WAT       -31.1820  -76.1660   -8.3330 O         1 <0>         0.0000
  43607 WAT       -31.1820  -76.1660   -8.0830 O         1 <0>         0.0000
  43608 WAT       -31.1820  -76.1660   -7.8330 O         1 <0>         0.0000
  43609 WAT       -31.1820  -76.1660   -7.5830 O         1 <0>         0.0000
  43610 WAT       -31.1820  -76.1660   -7.3330 O         1 <0>         0.0000
  43611 WAT       -31.1820  -76.1660   -7.0830 O         1 <0>         0.0000
  43612 WAT       -31.1820  -76.1660   -6.8330 O         1 <0>         0.0000
  43613 WAT       -31.1820  -76.1660   -6.5830 O         1 <0>         0.0000
  43614 WAT       -31.1820  -76.1660   -6.3330 O         1 <0>         0.0000
  43615 WAT       -31.1820  -76.1660   -6.0830 O         1 <0>         0.0000
  43616 WAT       -31.1820  -76.1660   -5.8330 O         1 <0>         0.0000
  43617 WAT       -31.1820  -76.1660   -5.5830 O         1 <0>         0.0000
  43618 WAT       -31.1820  -76.1660   -5.3330 O         1 <0>         0.0000
  43619 WAT       -31.1820  -76.1660   -5.0830 O         1 <0>         0.0000
  43620 WAT       -31.1820  -76.1660   -4.8330 O         1 <0>         0.0000
  43621 WAT       -31.1820  -76.1660   -4.5830 O         1 <0>         0.0000
  43622 WAT       -31.1820  -76.1660   -4.3330 O         1 <0>         0.0000
  43623 WAT       -31.1820  -76.1660   -4.0830 O         1 <0>         0.0000
  43624 WAT       -31.1820  -76.1660   -3.8330 O         1 <0>         0.0000
  43625 WAT       -31.1820  -76.1660   -3.5830 O         1 <0>         0.0000
  43626 WAT       -31.1820  -76.1660   -3.3330 O         1 <0>         0.0000
  43627 WAT       -31.1820  -76.1660   -3.0830 O         1 <0>         0.0000
  43628 WAT       -31.1820  -76.1660   -2.8330 O         1 <0>         0.0000
  43629 WAT       -31.1820  -76.1660   -2.5830 O         1 <0>         0.0000
  43630 WAT       -31.1820  -76.1660   -2.3330 O         1 <0>         0.0000
  43631 WAT       -31.1820  -76.1660   -2.0830 O         1 <0>         0.0000
  43632 WAT       -31.1820  -76.1660   -1.8330 O         1 <0>         0.0000
  43633 WAT       -31.1820  -76.1660   -1.5830 O         1 <0>         0.0000
  43634 WAT       -31.1820  -76.1660   -1.3330 O         1 <0>         0.0000
  43635 WAT       -31.1820  -76.1660   -1.0830 O         1 <0>         0.0000
  43636 WAT       -31.1820  -76.1660   -0.8330 O         1 <0>         0.0000
  43637 WAT       -31.1820  -76.1660   -0.5830 O         1 <0>         0.0000
  43638 WAT       -31.1820  -76.1660   -0.3330 O         1 <0>         0.0000
  43639 WAT       -31.1820  -76.1660   -0.0830 O         1 <0>         0.0000
  43640 WAT       -31.1820  -75.9160   -9.8330 O         1 <0>         0.0000
  43641 WAT       -31.1820  -75.9160   -9.5830 O         1 <0>         0.0000
  43642 WAT       -31.1820  -75.9160   -9.3330 O         1 <0>         0.0000
  43643 WAT       -31.1820  -75.9160   -9.0830 O         1 <0>         0.0000
  43644 WAT       -31.1820  -75.9160   -8.8330 O         1 <0>         0.0000
  43645 WAT       -31.1820  -75.9160   -8.5830 O         1 <0>         0.0000
  43646 WAT       -31.1820  -75.9160   -8.3330 O         1 <0>         0.0000
  43647 WAT       -31.1820  -75.9160   -8.0830 O         1 <0>         0.0000
  43648 WAT       -31.1820  -75.9160   -7.8330 O         1 <0>         0.0000
  43649 WAT       -31.1820  -75.9160   -7.5830 O         1 <0>         0.0000
  43650 WAT       -31.1820  -75.9160   -7.3330 O         1 <0>         0.0000
  43651 WAT       -31.1820  -75.9160   -7.0830 O         1 <0>         0.0000
  43652 WAT       -31.1820  -75.9160   -6.8330 O         1 <0>         0.0000
  43653 WAT       -31.1820  -75.9160   -6.5830 O         1 <0>         0.0000
  43654 WAT       -31.1820  -75.9160   -6.3330 O         1 <0>         0.0000
  43655 WAT       -31.1820  -75.9160   -6.0830 O         1 <0>         0.0000
  43656 WAT       -31.1820  -75.9160   -5.8330 O         1 <0>         0.0000
  43657 WAT       -31.1820  -75.9160   -5.5830 O         1 <0>         0.0000
  43658 WAT       -31.1820  -75.9160   -5.3330 O         1 <0>         0.0000
  43659 WAT       -31.1820  -75.9160   -5.0830 O         1 <0>         0.0000
  43660 WAT       -31.1820  -75.9160   -4.8330 O         1 <0>         0.0000
  43661 WAT       -31.1820  -75.9160   -4.5830 O         1 <0>         0.0000
  43662 WAT       -31.1820  -75.9160   -4.3330 O         1 <0>         0.0000
  43663 WAT       -31.1820  -75.9160   -4.0830 O         1 <0>         0.0000
  43664 WAT       -31.1820  -75.9160   -3.8330 O         1 <0>         0.0000
  43665 WAT       -31.1820  -75.9160   -3.5830 O         1 <0>         0.0000
  43666 WAT       -31.1820  -75.9160   -3.3330 O         1 <0>         0.0000
  43667 WAT       -31.1820  -75.9160   -3.0830 O         1 <0>         0.0000
  43668 WAT       -31.1820  -75.9160   -2.8330 O         1 <0>         0.0000
  43669 WAT       -31.1820  -75.9160   -2.5830 O         1 <0>         0.0000
  43670 WAT       -31.1820  -75.9160   -2.3330 O         1 <0>         0.0000
  43671 WAT       -31.1820  -75.9160   -2.0830 O         1 <0>         0.0000
  43672 WAT       -31.1820  -75.9160   -1.8330 O         1 <0>         0.0000
  43673 WAT       -31.1820  -75.9160   -1.5830 O         1 <0>         0.0000
  43674 WAT       -31.1820  -75.9160   -1.3330 O         1 <0>         0.0000
  43675 WAT       -31.1820  -75.9160   -1.0830 O         1 <0>         0.0000
  43676 WAT       -31.1820  -75.9160   -0.8330 O         1 <0>         0.0000
  43677 WAT       -31.1820  -75.9160   -0.5830 O         1 <0>         0.0000
  43678 WAT       -31.1820  -75.9160   -0.3330 O         1 <0>         0.0000
  43679 WAT       -31.1820  -75.9160   -0.0830 O         1 <0>         0.0000
  43680 WAT       -31.1820  -75.6660   -9.8330 O         1 <0>         0.0000
  43681 WAT       -31.1820  -75.6660   -9.5830 O         1 <0>         0.0000
  43682 WAT       -31.1820  -75.6660   -9.3330 O         1 <0>         0.0000
  43683 WAT       -31.1820  -75.6660   -9.0830 O         1 <0>         0.0000
  43684 WAT       -31.1820  -75.6660   -8.8330 O         1 <0>         0.0000
  43685 WAT       -31.1820  -75.6660   -8.5830 O         1 <0>         0.0000
  43686 WAT       -31.1820  -75.6660   -8.3330 O         1 <0>         0.0000
  43687 WAT       -31.1820  -75.6660   -8.0830 O         1 <0>         0.0000
  43688 WAT       -31.1820  -75.6660   -7.8330 O         1 <0>         0.0000
  43689 WAT       -31.1820  -75.6660   -7.5830 O         1 <0>         0.0000
  43690 WAT       -31.1820  -75.6660   -7.3330 O         1 <0>         0.0000
  43691 WAT       -31.1820  -75.6660   -7.0830 O         1 <0>         0.0000
  43692 WAT       -31.1820  -75.6660   -6.8330 O         1 <0>         0.0000
  43693 WAT       -31.1820  -75.6660   -6.5830 O         1 <0>         0.0000
  43694 WAT       -31.1820  -75.6660   -6.3330 O         1 <0>         0.0000
  43695 WAT       -31.1820  -75.6660   -6.0830 O         1 <0>         0.0000
  43696 WAT       -31.1820  -75.6660   -5.8330 O         1 <0>         0.0000
  43697 WAT       -31.1820  -75.6660   -5.5830 O         1 <0>         0.0000
  43698 WAT       -31.1820  -75.6660   -5.3330 O         1 <0>         0.0000
  43699 WAT       -31.1820  -75.6660   -5.0830 O         1 <0>         0.0000
  43700 WAT       -31.1820  -75.6660   -4.8330 O         1 <0>         0.0000
  43701 WAT       -31.1820  -75.6660   -4.5830 O         1 <0>         0.0000
  43702 WAT       -31.1820  -75.6660   -4.3330 O         1 <0>         0.0000
  43703 WAT       -31.1820  -75.6660   -4.0830 O         1 <0>         0.0000
  43704 WAT       -31.1820  -75.6660   -3.8330 O         1 <0>         0.0000
  43705 WAT       -31.1820  -75.6660   -3.5830 O         1 <0>         0.0000
  43706 WAT       -31.1820  -75.6660   -3.3330 O         1 <0>         0.0000
  43707 WAT       -31.1820  -75.6660   -3.0830 O         1 <0>         0.0000
  43708 WAT       -31.1820  -75.6660   -2.8330 O         1 <0>         0.0000
  43709 WAT       -31.1820  -75.6660   -2.5830 O         1 <0>         0.0000
  43710 WAT       -31.1820  -75.6660   -2.3330 O         1 <0>         0.0000
  43711 WAT       -31.1820  -75.6660   -2.0830 O         1 <0>         0.0000
  43712 WAT       -31.1820  -75.6660   -1.8330 O         1 <0>         0.0000
  43713 WAT       -31.1820  -75.6660   -1.5830 O         1 <0>         0.0000
  43714 WAT       -31.1820  -75.6660   -1.3330 O         1 <0>         0.0000
  43715 WAT       -31.1820  -75.6660   -1.0830 O         1 <0>         0.0000
  43716 WAT       -31.1820  -75.6660   -0.8330 O         1 <0>         0.0000
  43717 WAT       -31.1820  -75.6660   -0.5830 O         1 <0>         0.0000
  43718 WAT       -31.1820  -75.6660   -0.3330 O         1 <0>         0.0000
  43719 WAT       -31.1820  -75.6660   -0.0830 O         1 <0>         0.0000
  43720 WAT       -31.1820  -75.4160   -9.8330 O         1 <0>         0.0000
  43721 WAT       -31.1820  -75.4160   -9.5830 O         1 <0>         0.0000
  43722 WAT       -31.1820  -75.4160   -9.3330 O         1 <0>         0.0000
  43723 WAT       -31.1820  -75.4160   -9.0830 O         1 <0>         0.0000
  43724 WAT       -31.1820  -75.4160   -8.8330 O         1 <0>         0.0000
  43725 WAT       -31.1820  -75.4160   -8.5830 O         1 <0>         0.0000
  43726 WAT       -31.1820  -75.4160   -8.3330 O         1 <0>         0.0000
  43727 WAT       -31.1820  -75.4160   -8.0830 O         1 <0>         0.0000
  43728 WAT       -31.1820  -75.4160   -7.8330 O         1 <0>         0.0000
  43729 WAT       -31.1820  -75.4160   -7.5830 O         1 <0>         0.0000
  43730 WAT       -31.1820  -75.4160   -7.3330 O         1 <0>         0.0000
  43731 WAT       -31.1820  -75.4160   -7.0830 O         1 <0>         0.0000
  43732 WAT       -31.1820  -75.4160   -6.8330 O         1 <0>         0.0000
  43733 WAT       -31.1820  -75.4160   -6.5830 O         1 <0>         0.0000
  43734 WAT       -31.1820  -75.4160   -6.3330 O         1 <0>         0.0000
  43735 WAT       -31.1820  -75.4160   -6.0830 O         1 <0>         0.0000
  43736 WAT       -31.1820  -75.4160   -5.8330 O         1 <0>         0.0000
  43737 WAT       -31.1820  -75.4160   -5.5830 O         1 <0>         0.0000
  43738 WAT       -31.1820  -75.4160   -5.3330 O         1 <0>         0.0000
  43739 WAT       -31.1820  -75.4160   -5.0830 O         1 <0>         0.0000
  43740 WAT       -31.1820  -75.4160   -4.8330 O         1 <0>         0.0000
  43741 WAT       -31.1820  -75.4160   -4.5830 O         1 <0>         0.0000
  43742 WAT       -31.1820  -75.4160   -4.3330 O         1 <0>         0.0000
  43743 WAT       -31.1820  -75.4160   -4.0830 O         1 <0>         0.0000
  43744 WAT       -31.1820  -75.4160   -3.8330 O         1 <0>         0.0000
  43745 WAT       -31.1820  -75.4160   -3.5830 O         1 <0>         0.0000
  43746 WAT       -31.1820  -75.4160   -3.3330 O         1 <0>         0.0000
  43747 WAT       -31.1820  -75.4160   -3.0830 O         1 <0>         0.0000
  43748 WAT       -31.1820  -75.4160   -2.8330 O         1 <0>         0.0000
  43749 WAT       -31.1820  -75.4160   -2.5830 O         1 <0>         0.0000
  43750 WAT       -31.1820  -75.4160   -2.3330 O         1 <0>         0.0000
  43751 WAT       -31.1820  -75.4160   -2.0830 O         1 <0>         0.0000
  43752 WAT       -31.1820  -75.4160   -1.8330 O         1 <0>         0.0000
  43753 WAT       -31.1820  -75.4160   -1.5830 O         1 <0>         0.0000
  43754 WAT       -31.1820  -75.4160   -1.3330 O         1 <0>         0.0000
  43755 WAT       -31.1820  -75.4160   -1.0830 O         1 <0>         0.0000
  43756 WAT       -31.1820  -75.4160   -0.8330 O         1 <0>         0.0000
  43757 WAT       -31.1820  -75.4160   -0.5830 O         1 <0>         0.0000
  43758 WAT       -31.1820  -75.4160   -0.3330 O         1 <0>         0.0000
  43759 WAT       -31.1820  -75.4160   -0.0830 O         1 <0>         0.0000
  43760 WAT       -31.1820  -75.1660   -9.8330 O         1 <0>         0.0000
  43761 WAT       -31.1820  -75.1660   -9.5830 O         1 <0>         0.0000
  43762 WAT       -31.1820  -75.1660   -9.3330 O         1 <0>         0.0000
  43763 WAT       -31.1820  -75.1660   -9.0830 O         1 <0>         0.0000
  43764 WAT       -31.1820  -75.1660   -8.8330 O         1 <0>         0.0000
  43765 WAT       -31.1820  -75.1660   -8.5830 O         1 <0>         0.0000
  43766 WAT       -31.1820  -75.1660   -8.3330 O         1 <0>         0.0000
  43767 WAT       -31.1820  -75.1660   -8.0830 O         1 <0>         0.0000
  43768 WAT       -31.1820  -75.1660   -7.8330 O         1 <0>         0.0000
  43769 WAT       -31.1820  -75.1660   -7.5830 O         1 <0>         0.0000
  43770 WAT       -31.1820  -75.1660   -7.3330 O         1 <0>         0.0000
  43771 WAT       -31.1820  -75.1660   -7.0830 O         1 <0>         0.0000
  43772 WAT       -31.1820  -75.1660   -6.8330 O         1 <0>         0.0000
  43773 WAT       -31.1820  -75.1660   -6.5830 O         1 <0>         0.0000
  43774 WAT       -31.1820  -75.1660   -6.3330 O         1 <0>         0.0000
  43775 WAT       -31.1820  -75.1660   -6.0830 O         1 <0>         0.0000
  43776 WAT       -31.1820  -75.1660   -5.8330 O         1 <0>         0.0000
  43777 WAT       -31.1820  -75.1660   -5.5830 O         1 <0>         0.0000
  43778 WAT       -31.1820  -75.1660   -5.3330 O         1 <0>         0.0000
  43779 WAT       -31.1820  -75.1660   -5.0830 O         1 <0>         0.0000
  43780 WAT       -31.1820  -75.1660   -4.8330 O         1 <0>         0.0000
  43781 WAT       -31.1820  -75.1660   -4.5830 O         1 <0>         0.0000
  43782 WAT       -31.1820  -75.1660   -4.3330 O         1 <0>         0.0000
  43783 WAT       -31.1820  -75.1660   -4.0830 O         1 <0>         0.0000
  43784 WAT       -31.1820  -75.1660   -3.8330 O         1 <0>         0.0000
  43785 WAT       -31.1820  -75.1660   -3.5830 O         1 <0>         0.0000
  43786 WAT       -31.1820  -75.1660   -3.3330 O         1 <0>         0.0000
  43787 WAT       -31.1820  -75.1660   -3.0830 O         1 <0>         0.0000
  43788 WAT       -31.1820  -75.1660   -2.8330 O         1 <0>         0.0000
  43789 WAT       -31.1820  -75.1660   -2.5830 O         1 <0>         0.0000
  43790 WAT       -31.1820  -75.1660   -2.3330 O         1 <0>         0.0000
  43791 WAT       -31.1820  -75.1660   -2.0830 O         1 <0>         0.0000
  43792 WAT       -31.1820  -75.1660   -1.8330 O         1 <0>         0.0000
  43793 WAT       -31.1820  -75.1660   -1.5830 O         1 <0>         0.0000
  43794 WAT       -31.1820  -75.1660   -1.3330 O         1 <0>         0.0000
  43795 WAT       -31.1820  -75.1660   -1.0830 O         1 <0>         0.0000
  43796 WAT       -31.1820  -75.1660   -0.8330 O         1 <0>         0.0000
  43797 WAT       -31.1820  -75.1660   -0.5830 O         1 <0>         0.0000
  43798 WAT       -31.1820  -75.1660   -0.3330 O         1 <0>         0.0000
  43799 WAT       -31.1820  -75.1660   -0.0830 O         1 <0>         0.0000
  43800 WAT       -31.1820  -74.9160   -9.8330 O         1 <0>         0.0000
  43801 WAT       -31.1820  -74.9160   -9.5830 O         1 <0>         0.0000
  43802 WAT       -31.1820  -74.9160   -9.3330 O         1 <0>         0.0000
  43803 WAT       -31.1820  -74.9160   -9.0830 O         1 <0>         0.0000
  43804 WAT       -31.1820  -74.9160   -8.8330 O         1 <0>         0.0000
  43805 WAT       -31.1820  -74.9160   -8.5830 O         1 <0>         0.0000
  43806 WAT       -31.1820  -74.9160   -8.3330 O         1 <0>         0.0000
  43807 WAT       -31.1820  -74.9160   -8.0830 O         1 <0>         0.0000
  43808 WAT       -31.1820  -74.9160   -7.8330 O         1 <0>         0.0000
  43809 WAT       -31.1820  -74.9160   -7.5830 O         1 <0>         0.0000
  43810 WAT       -31.1820  -74.9160   -7.3330 O         1 <0>         0.0000
  43811 WAT       -31.1820  -74.9160   -7.0830 O         1 <0>         0.0000
  43812 WAT       -31.1820  -74.9160   -6.8330 O         1 <0>         0.0000
  43813 WAT       -31.1820  -74.9160   -6.5830 O         1 <0>         0.0000
  43814 WAT       -31.1820  -74.9160   -6.3330 O         1 <0>         0.0000
  43815 WAT       -31.1820  -74.9160   -6.0830 O         1 <0>         0.0000
  43816 WAT       -31.1820  -74.9160   -5.8330 O         1 <0>         0.0000
  43817 WAT       -31.1820  -74.9160   -5.5830 O         1 <0>         0.0000
  43818 WAT       -31.1820  -74.9160   -5.3330 O         1 <0>         0.0000
  43819 WAT       -31.1820  -74.9160   -5.0830 O         1 <0>         0.0000
  43820 WAT       -31.1820  -74.9160   -4.8330 O         1 <0>         0.0000
  43821 WAT       -31.1820  -74.9160   -4.5830 O         1 <0>         0.0000
  43822 WAT       -31.1820  -74.9160   -4.3330 O         1 <0>         0.0000
  43823 WAT       -31.1820  -74.9160   -4.0830 O         1 <0>         0.0000
  43824 WAT       -31.1820  -74.9160   -3.8330 O         1 <0>         0.0000
  43825 WAT       -31.1820  -74.9160   -3.5830 O         1 <0>         0.0000
  43826 WAT       -31.1820  -74.9160   -3.3330 O         1 <0>         0.0000
  43827 WAT       -31.1820  -74.9160   -3.0830 O         1 <0>         0.0000
  43828 WAT       -31.1820  -74.9160   -2.8330 O         1 <0>         0.0000
  43829 WAT       -31.1820  -74.9160   -2.5830 O         1 <0>         0.0000
  43830 WAT       -31.1820  -74.9160   -2.3330 O         1 <0>         0.0000
  43831 WAT       -31.1820  -74.9160   -2.0830 O         1 <0>         0.0000
  43832 WAT       -31.1820  -74.9160   -1.8330 O         1 <0>         0.0000
  43833 WAT       -31.1820  -74.9160   -1.5830 O         1 <0>         0.0000
  43834 WAT       -31.1820  -74.9160   -1.3330 O         1 <0>         0.0000
  43835 WAT       -31.1820  -74.9160   -1.0830 O         1 <0>         0.0000
  43836 WAT       -31.1820  -74.9160   -0.8330 O         1 <0>         0.0000
  43837 WAT       -31.1820  -74.9160   -0.5830 O         1 <0>         0.0000
  43838 WAT       -31.1820  -74.9160   -0.3330 O         1 <0>         0.0000
  43839 WAT       -31.1820  -74.9160   -0.0830 O         1 <0>         0.0000
  43840 WAT       -31.1820  -74.6660   -9.8330 O         1 <0>         0.0000
  43841 WAT       -31.1820  -74.6660   -9.5830 O         1 <0>         0.0000
  43842 WAT       -31.1820  -74.6660   -9.3330 O         1 <0>         0.0000
  43843 WAT       -31.1820  -74.6660   -9.0830 O         1 <0>         0.0000
  43844 WAT       -31.1820  -74.6660   -8.8330 O         1 <0>         0.0000
  43845 WAT       -31.1820  -74.6660   -8.5830 O         1 <0>         0.0000
  43846 WAT       -31.1820  -74.6660   -8.3330 O         1 <0>         0.0000
  43847 WAT       -31.1820  -74.6660   -8.0830 O         1 <0>         0.0000
  43848 WAT       -31.1820  -74.6660   -7.8330 O         1 <0>         0.0000
  43849 WAT       -31.1820  -74.6660   -7.5830 O         1 <0>         0.0000
  43850 WAT       -31.1820  -74.6660   -7.3330 O         1 <0>         0.0000
  43851 WAT       -31.1820  -74.6660   -7.0830 O         1 <0>         0.0000
  43852 WAT       -31.1820  -74.6660   -6.8330 O         1 <0>         0.0000
  43853 WAT       -31.1820  -74.6660   -6.5830 O         1 <0>         0.0000
  43854 WAT       -31.1820  -74.6660   -6.3330 O         1 <0>         0.0000
  43855 WAT       -31.1820  -74.6660   -6.0830 O         1 <0>         0.0000
  43856 WAT       -31.1820  -74.6660   -5.8330 O         1 <0>         0.0000
  43857 WAT       -31.1820  -74.6660   -5.5830 O         1 <0>         0.0001
  43858 WAT       -31.1820  -74.6660   -5.3330 O         1 <0>         0.0001
  43859 WAT       -31.1820  -74.6660   -5.0830 O         1 <0>         0.0001
  43860 WAT       -31.1820  -74.6660   -4.8330 O         1 <0>         0.0000
  43861 WAT       -31.1820  -74.6660   -4.5830 O         1 <0>         0.0000
  43862 WAT       -31.1820  -74.6660   -4.3330 O         1 <0>         0.0000
  43863 WAT       -31.1820  -74.6660   -4.0830 O         1 <0>         0.0000
  43864 WAT       -31.1820  -74.6660   -3.8330 O         1 <0>         0.0000
  43865 WAT       -31.1820  -74.6660   -3.5830 O         1 <0>         0.0000
  43866 WAT       -31.1820  -74.6660   -3.3330 O         1 <0>         0.0000
  43867 WAT       -31.1820  -74.6660   -3.0830 O         1 <0>         0.0000
  43868 WAT       -31.1820  -74.6660   -2.8330 O         1 <0>         0.0000
  43869 WAT       -31.1820  -74.6660   -2.5830 O         1 <0>         0.0000
  43870 WAT       -31.1820  -74.6660   -2.3330 O         1 <0>         0.0000
  43871 WAT       -31.1820  -74.6660   -2.0830 O         1 <0>         0.0000
  43872 WAT       -31.1820  -74.6660   -1.8330 O         1 <0>         0.0000
  43873 WAT       -31.1820  -74.6660   -1.5830 O         1 <0>         0.0000
  43874 WAT       -31.1820  -74.6660   -1.3330 O         1 <0>         0.0000
  43875 WAT       -31.1820  -74.6660   -1.0830 O         1 <0>         0.0000
  43876 WAT       -31.1820  -74.6660   -0.8330 O         1 <0>         0.0000
  43877 WAT       -31.1820  -74.6660   -0.5830 O         1 <0>         0.0000
  43878 WAT       -31.1820  -74.6660   -0.3330 O         1 <0>         0.0000
  43879 WAT       -31.1820  -74.6660   -0.0830 O         1 <0>         0.0000
  43880 WAT       -31.1820  -74.4160   -9.8330 O         1 <0>         0.0000
  43881 WAT       -31.1820  -74.4160   -9.5830 O         1 <0>         0.0000
  43882 WAT       -31.1820  -74.4160   -9.3330 O         1 <0>         0.0000
  43883 WAT       -31.1820  -74.4160   -9.0830 O         1 <0>         0.0000
  43884 WAT       -31.1820  -74.4160   -8.8330 O         1 <0>         0.0000
  43885 WAT       -31.1820  -74.4160   -8.5830 O         1 <0>         0.0000
  43886 WAT       -31.1820  -74.4160   -8.3330 O         1 <0>         0.0000
  43887 WAT       -31.1820  -74.4160   -8.0830 O         1 <0>         0.0000
  43888 WAT       -31.1820  -74.4160   -7.8330 O         1 <0>         0.0000
  43889 WAT       -31.1820  -74.4160   -7.5830 O         1 <0>         0.0000
  43890 WAT       -31.1820  -74.4160   -7.3330 O         1 <0>         0.0000
  43891 WAT       -31.1820  -74.4160   -7.0830 O         1 <0>         0.0000
  43892 WAT       -31.1820  -74.4160   -6.8330 O         1 <0>         0.0000
  43893 WAT       -31.1820  -74.4160   -6.5830 O         1 <0>         0.0000
  43894 WAT       -31.1820  -74.4160   -6.3330 O         1 <0>         0.0000
  43895 WAT       -31.1820  -74.4160   -6.0830 O         1 <0>         0.0000
  43896 WAT       -31.1820  -74.4160   -5.8330 O         1 <0>         0.0001
  43897 WAT       -31.1820  -74.4160   -5.5830 O         1 <0>         0.0002
  43898 WAT       -31.1820  -74.4160   -5.3330 O         1 <0>         0.0002
  43899 WAT       -31.1820  -74.4160   -5.0830 O         1 <0>         0.0002
  43900 WAT       -31.1820  -74.4160   -4.8330 O         1 <0>         0.0001
  43901 WAT       -31.1820  -74.4160   -4.5830 O         1 <0>         0.0001
  43902 WAT       -31.1820  -74.4160   -4.3330 O         1 <0>         0.0000
  43903 WAT       -31.1820  -74.4160   -4.0830 O         1 <0>         0.0000
  43904 WAT       -31.1820  -74.4160   -3.8330 O         1 <0>         0.0000
  43905 WAT       -31.1820  -74.4160   -3.5830 O         1 <0>         0.0000
  43906 WAT       -31.1820  -74.4160   -3.3330 O         1 <0>         0.0000
  43907 WAT       -31.1820  -74.4160   -3.0830 O         1 <0>         0.0000
  43908 WAT       -31.1820  -74.4160   -2.8330 O         1 <0>         0.0000
  43909 WAT       -31.1820  -74.4160   -2.5830 O         1 <0>         0.0000
  43910 WAT       -31.1820  -74.4160   -2.3330 O         1 <0>         0.0000
  43911 WAT       -31.1820  -74.4160   -2.0830 O         1 <0>         0.0000
  43912 WAT       -31.1820  -74.4160   -1.8330 O         1 <0>         0.0000
  43913 WAT       -31.1820  -74.4160   -1.5830 O         1 <0>         0.0000
  43914 WAT       -31.1820  -74.4160   -1.3330 O         1 <0>         0.0000
  43915 WAT       -31.1820  -74.4160   -1.0830 O         1 <0>         0.0000
  43916 WAT       -31.1820  -74.4160   -0.8330 O         1 <0>         0.0000
  43917 WAT       -31.1820  -74.4160   -0.5830 O         1 <0>         0.0000
  43918 WAT       -31.1820  -74.4160   -0.3330 O         1 <0>         0.0000
  43919 WAT       -31.1820  -74.4160   -0.0830 O         1 <0>         0.0000
  43920 WAT       -31.1820  -74.1660   -9.8330 O         1 <0>         0.0000
  43921 WAT       -31.1820  -74.1660   -9.5830 O         1 <0>         0.0000
  43922 WAT       -31.1820  -74.1660   -9.3330 O         1 <0>         0.0000
  43923 WAT       -31.1820  -74.1660   -9.0830 O         1 <0>         0.0000
  43924 WAT       -31.1820  -74.1660   -8.8330 O         1 <0>         0.0000
  43925 WAT       -31.1820  -74.1660   -8.5830 O         1 <0>         0.0000
  43926 WAT       -31.1820  -74.1660   -8.3330 O         1 <0>         0.0000
  43927 WAT       -31.1820  -74.1660   -8.0830 O         1 <0>         0.0000
  43928 WAT       -31.1820  -74.1660   -7.8330 O         1 <0>         0.0000
  43929 WAT       -31.1820  -74.1660   -7.5830 O         1 <0>         0.0000
  43930 WAT       -31.1820  -74.1660   -7.3330 O         1 <0>         0.0000
  43931 WAT       -31.1820  -74.1660   -7.0830 O         1 <0>         0.0000
  43932 WAT       -31.1820  -74.1660   -6.8330 O         1 <0>         0.0000
  43933 WAT       -31.1820  -74.1660   -6.5830 O         1 <0>         0.0000
  43934 WAT       -31.1820  -74.1660   -6.3330 O         1 <0>         0.0000
  43935 WAT       -31.1820  -74.1660   -6.0830 O         1 <0>         0.0001
  43936 WAT       -31.1820  -74.1660   -5.8330 O         1 <0>         0.0002
  43937 WAT       -31.1820  -74.1660   -5.5830 O         1 <0>         0.0003
  43938 WAT       -31.1820  -74.1660   -5.3330 O         1 <0>         0.0005
  43939 WAT       -31.1820  -74.1660   -5.0830 O         1 <0>         0.0006
  43940 WAT       -31.1820  -74.1660   -4.8330 O         1 <0>         0.0007
  43941 WAT       -31.1820  -74.1660   -4.5830 O         1 <0>         0.0006
  43942 WAT       -31.1820  -74.1660   -4.3330 O         1 <0>         0.0003
  43943 WAT       -31.1820  -74.1660   -4.0830 O         1 <0>         0.0001
  43944 WAT       -31.1820  -74.1660   -3.8330 O         1 <0>         0.0000
  43945 WAT       -31.1820  -74.1660   -3.5830 O         1 <0>         0.0000
  43946 WAT       -31.1820  -74.1660   -3.3330 O         1 <0>         0.0000
  43947 WAT       -31.1820  -74.1660   -3.0830 O         1 <0>         0.0000
  43948 WAT       -31.1820  -74.1660   -2.8330 O         1 <0>         0.0000
  43949 WAT       -31.1820  -74.1660   -2.5830 O         1 <0>         0.0000
  43950 WAT       -31.1820  -74.1660   -2.3330 O         1 <0>         0.0000
  43951 WAT       -31.1820  -74.1660   -2.0830 O         1 <0>         0.0000
  43952 WAT       -31.1820  -74.1660   -1.8330 O         1 <0>         0.0000
  43953 WAT       -31.1820  -74.1660   -1.5830 O         1 <0>         0.0000
  43954 WAT       -31.1820  -74.1660   -1.3330 O         1 <0>         0.0000
  43955 WAT       -31.1820  -74.1660   -1.0830 O         1 <0>         0.0000
  43956 WAT       -31.1820  -74.1660   -0.8330 O         1 <0>         0.0000
  43957 WAT       -31.1820  -74.1660   -0.5830 O         1 <0>         0.0000
  43958 WAT       -31.1820  -74.1660   -0.3330 O         1 <0>         0.0000
  43959 WAT       -31.1820  -74.1660   -0.0830 O         1 <0>         0.0000
  43960 WAT       -31.1820  -73.9160   -9.8330 O         1 <0>         0.0000
  43961 WAT       -31.1820  -73.9160   -9.5830 O         1 <0>         0.0000
  43962 WAT       -31.1820  -73.9160   -9.3330 O         1 <0>         0.0000
  43963 WAT       -31.1820  -73.9160   -9.0830 O         1 <0>         0.0000
  43964 WAT       -31.1820  -73.9160   -8.8330 O         1 <0>         0.0000
  43965 WAT       -31.1820  -73.9160   -8.5830 O         1 <0>         0.0000
  43966 WAT       -31.1820  -73.9160   -8.3330 O         1 <0>         0.0000
  43967 WAT       -31.1820  -73.9160   -8.0830 O         1 <0>         0.0000
  43968 WAT       -31.1820  -73.9160   -7.8330 O         1 <0>         0.0000
  43969 WAT       -31.1820  -73.9160   -7.5830 O         1 <0>         0.0000
  43970 WAT       -31.1820  -73.9160   -7.3330 O         1 <0>         0.0000
  43971 WAT       -31.1820  -73.9160   -7.0830 O         1 <0>         0.0000
  43972 WAT       -31.1820  -73.9160   -6.8330 O         1 <0>         0.0000
  43973 WAT       -31.1820  -73.9160   -6.5830 O         1 <0>         0.0001
  43974 WAT       -31.1820  -73.9160   -6.3330 O         1 <0>         0.0001
  43975 WAT       -31.1820  -73.9160   -6.0830 O         1 <0>         0.0002
  43976 WAT       -31.1820  -73.9160   -5.8330 O         1 <0>         0.0004
  43977 WAT       -31.1820  -73.9160   -5.5830 O         1 <0>         0.0007
  43978 WAT       -31.1820  -73.9160   -5.3330 O         1 <0>         0.0015
  43979 WAT       -31.1820  -73.9160   -5.0830 O         1 <0>         0.0026
  43980 WAT       -31.1820  -73.9160   -4.8330 O         1 <0>         0.0035
  43981 WAT       -31.1820  -73.9160   -4.5830 O         1 <0>         0.0033
  43982 WAT       -31.1820  -73.9160   -4.3330 O         1 <0>         0.0022
  43983 WAT       -31.1820  -73.9160   -4.0830 O         1 <0>         0.0009
  43984 WAT       -31.1820  -73.9160   -3.8330 O         1 <0>         0.0002
  43985 WAT       -31.1820  -73.9160   -3.5830 O         1 <0>         0.0000
  43986 WAT       -31.1820  -73.9160   -3.3330 O         1 <0>         0.0000
  43987 WAT       -31.1820  -73.9160   -3.0830 O         1 <0>         0.0000
  43988 WAT       -31.1820  -73.9160   -2.8330 O         1 <0>         0.0000
  43989 WAT       -31.1820  -73.9160   -2.5830 O         1 <0>         0.0000
  43990 WAT       -31.1820  -73.9160   -2.3330 O         1 <0>         0.0000
  43991 WAT       -31.1820  -73.9160   -2.0830 O         1 <0>         0.0000
  43992 WAT       -31.1820  -73.9160   -1.8330 O         1 <0>         0.0000
  43993 WAT       -31.1820  -73.9160   -1.5830 O         1 <0>         0.0000
  43994 WAT       -31.1820  -73.9160   -1.3330 O         1 <0>         0.0000
  43995 WAT       -31.1820  -73.9160   -1.0830 O         1 <0>         0.0000
  43996 WAT       -31.1820  -73.9160   -0.8330 O         1 <0>         0.0000
  43997 WAT       -31.1820  -73.9160   -0.5830 O         1 <0>         0.0000
  43998 WAT       -31.1820  -73.9160   -0.3330 O         1 <0>         0.0000
  43999 WAT       -31.1820  -73.9160   -0.0830 O         1 <0>         0.0000
  44000 WAT       -31.1820  -73.6660   -9.8330 O         1 <0>         0.0000
  44001 WAT       -31.1820  -73.6660   -9.5830 O         1 <0>         0.0000
  44002 WAT       -31.1820  -73.6660   -9.3330 O         1 <0>         0.0000
  44003 WAT       -31.1820  -73.6660   -9.0830 O         1 <0>         0.0000
  44004 WAT       -31.1820  -73.6660   -8.8330 O         1 <0>         0.0000
  44005 WAT       -31.1820  -73.6660   -8.5830 O         1 <0>         0.0000
  44006 WAT       -31.1820  -73.6660   -8.3330 O         1 <0>         0.0000
  44007 WAT       -31.1820  -73.6660   -8.0830 O         1 <0>         0.0000
  44008 WAT       -31.1820  -73.6660   -7.8330 O         1 <0>         0.0000
  44009 WAT       -31.1820  -73.6660   -7.5830 O         1 <0>         0.0000
  44010 WAT       -31.1820  -73.6660   -7.3330 O         1 <0>         0.0000
  44011 WAT       -31.1820  -73.6660   -7.0830 O         1 <0>         0.0000
  44012 WAT       -31.1820  -73.6660   -6.8330 O         1 <0>         0.0001
  44013 WAT       -31.1820  -73.6660   -6.5830 O         1 <0>         0.0002
  44014 WAT       -31.1820  -73.6660   -6.3330 O         1 <0>         0.0003
  44015 WAT       -31.1820  -73.6660   -6.0830 O         1 <0>         0.0006
  44016 WAT       -31.1820  -73.6660   -5.8330 O         1 <0>         0.0011
  44017 WAT       -31.1820  -73.6660   -5.5830 O         1 <0>         0.0028
  44018 WAT       -31.1820  -73.6660   -5.3330 O         1 <0>         0.0063
  44019 WAT       -31.1820  -73.6660   -5.0830 O         1 <0>         0.0114
  44020 WAT       -31.1820  -73.6660   -4.8330 O         1 <0>         0.0152
  44021 WAT       -31.1820  -73.6660   -4.5830 O         1 <0>         0.0149
  44022 WAT       -31.1820  -73.6660   -4.3330 O         1 <0>         0.0102
  44023 WAT       -31.1820  -73.6660   -4.0830 O         1 <0>         0.0048
  44024 WAT       -31.1820  -73.6660   -3.8330 O         1 <0>         0.0015
  44025 WAT       -31.1820  -73.6660   -3.5830 O         1 <0>         0.0003
  44026 WAT       -31.1820  -73.6660   -3.3330 O         1 <0>         0.0000
  44027 WAT       -31.1820  -73.6660   -3.0830 O         1 <0>         0.0000
  44028 WAT       -31.1820  -73.6660   -2.8330 O         1 <0>         0.0000
  44029 WAT       -31.1820  -73.6660   -2.5830 O         1 <0>         0.0000
  44030 WAT       -31.1820  -73.6660   -2.3330 O         1 <0>         0.0000
  44031 WAT       -31.1820  -73.6660   -2.0830 O         1 <0>         0.0000
  44032 WAT       -31.1820  -73.6660   -1.8330 O         1 <0>         0.0000
  44033 WAT       -31.1820  -73.6660   -1.5830 O         1 <0>         0.0000
  44034 WAT       -31.1820  -73.6660   -1.3330 O         1 <0>         0.0000
  44035 WAT       -31.1820  -73.6660   -1.0830 O         1 <0>         0.0000
  44036 WAT       -31.1820  -73.6660   -0.8330 O         1 <0>         0.0000
  44037 WAT       -31.1820  -73.6660   -0.5830 O         1 <0>         0.0000
  44038 WAT       -31.1820  -73.6660   -0.3330 O         1 <0>         0.0000
  44039 WAT       -31.1820  -73.6660   -0.0830 O         1 <0>         0.0000
  44040 WAT       -31.1820  -73.4160   -9.8330 O         1 <0>         0.0000
  44041 WAT       -31.1820  -73.4160   -9.5830 O         1 <0>         0.0000
  44042 WAT       -31.1820  -73.4160   -9.3330 O         1 <0>         0.0000
  44043 WAT       -31.1820  -73.4160   -9.0830 O         1 <0>         0.0000
  44044 WAT       -31.1820  -73.4160   -8.8330 O         1 <0>         0.0000
  44045 WAT       -31.1820  -73.4160   -8.5830 O         1 <0>         0.0000
  44046 WAT       -31.1820  -73.4160   -8.3330 O         1 <0>         0.0000
  44047 WAT       -31.1820  -73.4160   -8.0830 O         1 <0>         0.0000
  44048 WAT       -31.1820  -73.4160   -7.8330 O         1 <0>         0.0000
  44049 WAT       -31.1820  -73.4160   -7.5830 O         1 <0>         0.0000
  44050 WAT       -31.1820  -73.4160   -7.3330 O         1 <0>         0.0000
  44051 WAT       -31.1820  -73.4160   -7.0830 O         1 <0>         0.0001
  44052 WAT       -31.1820  -73.4160   -6.8330 O         1 <0>         0.0001
  44053 WAT       -31.1820  -73.4160   -6.5830 O         1 <0>         0.0003
  44054 WAT       -31.1820  -73.4160   -6.3330 O         1 <0>         0.0007
  44055 WAT       -31.1820  -73.4160   -6.0830 O         1 <0>         0.0013
  44056 WAT       -31.1820  -73.4160   -5.8330 O         1 <0>         0.0034
  44057 WAT       -31.1820  -73.4160   -5.5830 O         1 <0>         0.0096
  44058 WAT       -31.1820  -73.4160   -5.3330 O         1 <0>         0.0223
  44059 WAT       -31.1820  -73.4160   -5.0830 O         1 <0>         0.0394
  44060 WAT       -31.1820  -73.4160   -4.8330 O         1 <0>         0.0516
  44061 WAT       -31.1820  -73.4160   -4.5830 O         1 <0>         0.0494
  44062 WAT       -31.1820  -73.4160   -4.3330 O         1 <0>         0.0342
  44063 WAT       -31.1820  -73.4160   -4.0830 O         1 <0>         0.0169
  44064 WAT       -31.1820  -73.4160   -3.8330 O         1 <0>         0.0059
  44065 WAT       -31.1820  -73.4160   -3.5830 O         1 <0>         0.0014
  44066 WAT       -31.1820  -73.4160   -3.3330 O         1 <0>         0.0002
  44067 WAT       -31.1820  -73.4160   -3.0830 O         1 <0>         0.0001
  44068 WAT       -31.1820  -73.4160   -2.8330 O         1 <0>         0.0000
  44069 WAT       -31.1820  -73.4160   -2.5830 O         1 <0>         0.0000
  44070 WAT       -31.1820  -73.4160   -2.3330 O         1 <0>         0.0000
  44071 WAT       -31.1820  -73.4160   -2.0830 O         1 <0>         0.0000
  44072 WAT       -31.1820  -73.4160   -1.8330 O         1 <0>         0.0000
  44073 WAT       -31.1820  -73.4160   -1.5830 O         1 <0>         0.0000
  44074 WAT       -31.1820  -73.4160   -1.3330 O         1 <0>         0.0000
  44075 WAT       -31.1820  -73.4160   -1.0830 O         1 <0>         0.0000
  44076 WAT       -31.1820  -73.4160   -0.8330 O         1 <0>         0.0000
  44077 WAT       -31.1820  -73.4160   -0.5830 O         1 <0>         0.0000
  44078 WAT       -31.1820  -73.4160   -0.3330 O         1 <0>         0.0000
  44079 WAT       -31.1820  -73.4160   -0.0830 O         1 <0>         0.0000
  44080 WAT       -31.1820  -73.1660   -9.8330 O         1 <0>         0.0000
  44081 WAT       -31.1820  -73.1660   -9.5830 O         1 <0>         0.0000
  44082 WAT       -31.1820  -73.1660   -9.3330 O         1 <0>         0.0000
  44083 WAT       -31.1820  -73.1660   -9.0830 O         1 <0>         0.0000
  44084 WAT       -31.1820  -73.1660   -8.8330 O         1 <0>         0.0000
  44085 WAT       -31.1820  -73.1660   -8.5830 O         1 <0>         0.0000
  44086 WAT       -31.1820  -73.1660   -8.3330 O         1 <0>         0.0000
  44087 WAT       -31.1820  -73.1660   -8.0830 O         1 <0>         0.0001
  44088 WAT       -31.1820  -73.1660   -7.8330 O         1 <0>         0.0003
  44089 WAT       -31.1820  -73.1660   -7.5830 O         1 <0>         0.0004
  44090 WAT       -31.1820  -73.1660   -7.3330 O         1 <0>         0.0003
  44091 WAT       -31.1820  -73.1660   -7.0830 O         1 <0>         0.0002
  44092 WAT       -31.1820  -73.1660   -6.8330 O         1 <0>         0.0002
  44093 WAT       -31.1820  -73.1660   -6.5830 O         1 <0>         0.0004
  44094 WAT       -31.1820  -73.1660   -6.3330 O         1 <0>         0.0010
  44095 WAT       -31.1820  -73.1660   -6.0830 O         1 <0>         0.0027
  44096 WAT       -31.1820  -73.1660   -5.8330 O         1 <0>         0.0086
  44097 WAT       -31.1820  -73.1660   -5.5830 O         1 <0>         0.0253
  44098 WAT       -31.1820  -73.1660   -5.3330 O         1 <0>         0.0584
  44099 WAT       -31.1820  -73.1660   -5.0830 O         1 <0>         0.1005
  44100 WAT       -31.1820  -73.1660   -4.8330 O         1 <0>         0.1280
  44101 WAT       -31.1820  -73.1660   -4.5830 O         1 <0>         0.1202
  44102 WAT       -31.1820  -73.1660   -4.3330 O         1 <0>         0.0830
  44103 WAT       -31.1820  -73.1660   -4.0830 O         1 <0>         0.0420
  44104 WAT       -31.1820  -73.1660   -3.8330 O         1 <0>         0.0155
  44105 WAT       -31.1820  -73.1660   -3.5830 O         1 <0>         0.0041
  44106 WAT       -31.1820  -73.1660   -3.3330 O         1 <0>         0.0009
  44107 WAT       -31.1820  -73.1660   -3.0830 O         1 <0>         0.0002
  44108 WAT       -31.1820  -73.1660   -2.8330 O         1 <0>         0.0000
  44109 WAT       -31.1820  -73.1660   -2.5830 O         1 <0>         0.0000
  44110 WAT       -31.1820  -73.1660   -2.3330 O         1 <0>         0.0000
  44111 WAT       -31.1820  -73.1660   -2.0830 O         1 <0>         0.0000
  44112 WAT       -31.1820  -73.1660   -1.8330 O         1 <0>         0.0000
  44113 WAT       -31.1820  -73.1660   -1.5830 O         1 <0>         0.0000
  44114 WAT       -31.1820  -73.1660   -1.3330 O         1 <0>         0.0000
  44115 WAT       -31.1820  -73.1660   -1.0830 O         1 <0>         0.0000
  44116 WAT       -31.1820  -73.1660   -0.8330 O         1 <0>         0.0000
  44117 WAT       -31.1820  -73.1660   -0.5830 O         1 <0>         0.0000
  44118 WAT       -31.1820  -73.1660   -0.3330 O         1 <0>         0.0000
  44119 WAT       -31.1820  -73.1660   -0.0830 O         1 <0>         0.0000
  44120 WAT       -31.1820  -72.9160   -9.8330 O         1 <0>         0.0000
  44121 WAT       -31.1820  -72.9160   -9.5830 O         1 <0>         0.0000
  44122 WAT       -31.1820  -72.9160   -9.3330 O         1 <0>         0.0000
  44123 WAT       -31.1820  -72.9160   -9.0830 O         1 <0>         0.0000
  44124 WAT       -31.1820  -72.9160   -8.8330 O         1 <0>         0.0000
  44125 WAT       -31.1820  -72.9160   -8.5830 O         1 <0>         0.0000
  44126 WAT       -31.1820  -72.9160   -8.3330 O         1 <0>         0.0004
  44127 WAT       -31.1820  -72.9160   -8.0830 O         1 <0>         0.0017
  44128 WAT       -31.1820  -72.9160   -7.8330 O         1 <0>         0.0029
  44129 WAT       -31.1820  -72.9160   -7.5830 O         1 <0>         0.0029
  44130 WAT       -31.1820  -72.9160   -7.3330 O         1 <0>         0.0019
  44131 WAT       -31.1820  -72.9160   -7.0830 O         1 <0>         0.0010
  44132 WAT       -31.1820  -72.9160   -6.8330 O         1 <0>         0.0005
  44133 WAT       -31.1820  -72.9160   -6.5830 O         1 <0>         0.0006
  44134 WAT       -31.1820  -72.9160   -6.3330 O         1 <0>         0.0013
  44135 WAT       -31.1820  -72.9160   -6.0830 O         1 <0>         0.0046
  44136 WAT       -31.1820  -72.9160   -5.8330 O         1 <0>         0.0164
  44137 WAT       -31.1820  -72.9160   -5.5830 O         1 <0>         0.0490
  44138 WAT       -31.1820  -72.9160   -5.3330 O         1 <0>         0.1113
  44139 WAT       -31.1820  -72.9160   -5.0830 O         1 <0>         0.1881
  44140 WAT       -31.1820  -72.9160   -4.8330 O         1 <0>         0.2350
  44141 WAT       -31.1820  -72.9160   -4.5830 O         1 <0>         0.2168
  44142 WAT       -31.1820  -72.9160   -4.3330 O         1 <0>         0.1485
  44143 WAT       -31.1820  -72.9160   -4.0830 O         1 <0>         0.0759
  44144 WAT       -31.1820  -72.9160   -3.8330 O         1 <0>         0.0291
  44145 WAT       -31.1820  -72.9160   -3.5830 O         1 <0>         0.0086
  44146 WAT       -31.1820  -72.9160   -3.3330 O         1 <0>         0.0022
  44147 WAT       -31.1820  -72.9160   -3.0830 O         1 <0>         0.0006
  44148 WAT       -31.1820  -72.9160   -2.8330 O         1 <0>         0.0001
  44149 WAT       -31.1820  -72.9160   -2.5830 O         1 <0>         0.0000
  44150 WAT       -31.1820  -72.9160   -2.3330 O         1 <0>         0.0000
  44151 WAT       -31.1820  -72.9160   -2.0830 O         1 <0>         0.0000
  44152 WAT       -31.1820  -72.9160   -1.8330 O         1 <0>         0.0000
  44153 WAT       -31.1820  -72.9160   -1.5830 O         1 <0>         0.0000
  44154 WAT       -31.1820  -72.9160   -1.3330 O         1 <0>         0.0000
  44155 WAT       -31.1820  -72.9160   -1.0830 O         1 <0>         0.0000
  44156 WAT       -31.1820  -72.9160   -0.8330 O         1 <0>         0.0000
  44157 WAT       -31.1820  -72.9160   -0.5830 O         1 <0>         0.0000
  44158 WAT       -31.1820  -72.9160   -0.3330 O         1 <0>         0.0000
  44159 WAT       -31.1820  -72.9160   -0.0830 O         1 <0>         0.0000
  44160 WAT       -31.1820  -72.6660   -9.8330 O         1 <0>         0.0000
  44161 WAT       -31.1820  -72.6660   -9.5830 O         1 <0>         0.0000
  44162 WAT       -31.1820  -72.6660   -9.3330 O         1 <0>         0.0000
  44163 WAT       -31.1820  -72.6660   -9.0830 O         1 <0>         0.0000
  44164 WAT       -31.1820  -72.6660   -8.8330 O         1 <0>         0.0000
  44165 WAT       -31.1820  -72.6660   -8.5830 O         1 <0>         0.0006
  44166 WAT       -31.1820  -72.6660   -8.3330 O         1 <0>         0.0041
  44167 WAT       -31.1820  -72.6660   -8.0830 O         1 <0>         0.0107
  44168 WAT       -31.1820  -72.6660   -7.8330 O         1 <0>         0.0153
  44169 WAT       -31.1820  -72.6660   -7.5830 O         1 <0>         0.0136
  44170 WAT       -31.1820  -72.6660   -7.3330 O         1 <0>         0.0080
  44171 WAT       -31.1820  -72.6660   -7.0830 O         1 <0>         0.0034
  44172 WAT       -31.1820  -72.6660   -6.8330 O         1 <0>         0.0013
  44173 WAT       -31.1820  -72.6660   -6.5830 O         1 <0>         0.0008
  44174 WAT       -31.1820  -72.6660   -6.3330 O         1 <0>         0.0016
  44175 WAT       -31.1820  -72.6660   -6.0830 O         1 <0>         0.0061
  44176 WAT       -31.1820  -72.6660   -5.8330 O         1 <0>         0.0232
  44177 WAT       -31.1820  -72.6660   -5.5830 O         1 <0>         0.0696
  44178 WAT       -31.1820  -72.6660   -5.3330 O         1 <0>         0.1563
  44179 WAT       -31.1820  -72.6660   -5.0830 O         1 <0>         0.2609
  44180 WAT       -31.1820  -72.6660   -4.8330 O         1 <0>         0.3215
  44181 WAT       -31.1820  -72.6660   -4.5830 O         1 <0>         0.2929
  44182 WAT       -31.1820  -72.6660   -4.3330 O         1 <0>         0.1993
  44183 WAT       -31.1820  -72.6660   -4.0830 O         1 <0>         0.1028
  44184 WAT       -31.1820  -72.6660   -3.8330 O         1 <0>         0.0410
  44185 WAT       -31.1820  -72.6660   -3.5830 O         1 <0>         0.0131
  44186 WAT       -31.1820  -72.6660   -3.3330 O         1 <0>         0.0038
  44187 WAT       -31.1820  -72.6660   -3.0830 O         1 <0>         0.0011
  44188 WAT       -31.1820  -72.6660   -2.8330 O         1 <0>         0.0003
  44189 WAT       -31.1820  -72.6660   -2.5830 O         1 <0>         0.0000
  44190 WAT       -31.1820  -72.6660   -2.3330 O         1 <0>         0.0000
  44191 WAT       -31.1820  -72.6660   -2.0830 O         1 <0>         0.0000
  44192 WAT       -31.1820  -72.6660   -1.8330 O         1 <0>         0.0000
  44193 WAT       -31.1820  -72.6660   -1.5830 O         1 <0>         0.0000
  44194 WAT       -31.1820  -72.6660   -1.3330 O         1 <0>         0.0000
  44195 WAT       -31.1820  -72.6660   -1.0830 O         1 <0>         0.0000
  44196 WAT       -31.1820  -72.6660   -0.8330 O         1 <0>         0.0000
  44197 WAT       -31.1820  -72.6660   -0.5830 O         1 <0>         0.0000
  44198 WAT       -31.1820  -72.6660   -0.3330 O         1 <0>         0.0000
  44199 WAT       -31.1820  -72.6660   -0.0830 O         1 <0>         0.0000
  44200 WAT       -31.1820  -72.4160   -9.8330 O         1 <0>         0.0000
  44201 WAT       -31.1820  -72.4160   -9.5830 O         1 <0>         0.0000
  44202 WAT       -31.1820  -72.4160   -9.3330 O         1 <0>         0.0000
  44203 WAT       -31.1820  -72.4160   -9.0830 O         1 <0>         0.0000
  44204 WAT       -31.1820  -72.4160   -8.8330 O         1 <0>         0.0003
  44205 WAT       -31.1820  -72.4160   -8.5830 O         1 <0>         0.0045
  44206 WAT       -31.1820  -72.4160   -8.3330 O         1 <0>         0.0188
  44207 WAT       -31.1820  -72.4160   -8.0830 O         1 <0>         0.0393
  44208 WAT       -31.1820  -72.4160   -7.8330 O         1 <0>         0.0505
  44209 WAT       -31.1820  -72.4160   -7.5830 O         1 <0>         0.0415
  44210 WAT       -31.1820  -72.4160   -7.3330 O         1 <0>         0.0225
  44211 WAT       -31.1820  -72.4160   -7.0830 O         1 <0>         0.0084
  44212 WAT       -31.1820  -72.4160   -6.8330 O         1 <0>         0.0026
  44213 WAT       -31.1820  -72.4160   -6.5830 O         1 <0>         0.0012
  44214 WAT       -31.1820  -72.4160   -6.3330 O         1 <0>         0.0017
  44215 WAT       -31.1820  -72.4160   -6.0830 O         1 <0>         0.0064
  44216 WAT       -31.1820  -72.4160   -5.8330 O         1 <0>         0.0246
  44217 WAT       -31.1820  -72.4160   -5.5830 O         1 <0>         0.0739
  44218 WAT       -31.1820  -72.4160   -5.3330 O         1 <0>         0.1651
  44219 WAT       -31.1820  -72.4160   -5.0830 O         1 <0>         0.2728
  44220 WAT       -31.1820  -72.4160   -4.8330 O         1 <0>         0.3329
  44221 WAT       -31.1820  -72.4160   -4.5830 O         1 <0>         0.3013
  44222 WAT       -31.1820  -72.4160   -4.3330 O         1 <0>         0.2051
  44223 WAT       -31.1820  -72.4160   -4.0830 O         1 <0>         0.1073
  44224 WAT       -31.1820  -72.4160   -3.8330 O         1 <0>         0.0443
  44225 WAT       -31.1820  -72.4160   -3.5830 O         1 <0>         0.0153
  44226 WAT       -31.1820  -72.4160   -3.3330 O         1 <0>         0.0049
  44227 WAT       -31.1820  -72.4160   -3.0830 O         1 <0>         0.0015
  44228 WAT       -31.1820  -72.4160   -2.8330 O         1 <0>         0.0004
  44229 WAT       -31.1820  -72.4160   -2.5830 O         1 <0>         0.0001
  44230 WAT       -31.1820  -72.4160   -2.3330 O         1 <0>         0.0000
  44231 WAT       -31.1820  -72.4160   -2.0830 O         1 <0>         0.0000
  44232 WAT       -31.1820  -72.4160   -1.8330 O         1 <0>         0.0000
  44233 WAT       -31.1820  -72.4160   -1.5830 O         1 <0>         0.0000
  44234 WAT       -31.1820  -72.4160   -1.3330 O         1 <0>         0.0000
  44235 WAT       -31.1820  -72.4160   -1.0830 O         1 <0>         0.0000
  44236 WAT       -31.1820  -72.4160   -0.8330 O         1 <0>         0.0000
  44237 WAT       -31.1820  -72.4160   -0.5830 O         1 <0>         0.0000
  44238 WAT       -31.1820  -72.4160   -0.3330 O         1 <0>         0.0000
  44239 WAT       -31.1820  -72.4160   -0.0830 O         1 <0>         0.0000
  44240 WAT       -31.1820  -72.1660   -9.8330 O         1 <0>         0.0000
  44241 WAT       -31.1820  -72.1660   -9.5830 O         1 <0>         0.0000
  44242 WAT       -31.1820  -72.1660   -9.3330 O         1 <0>         0.0000
  44243 WAT       -31.1820  -72.1660   -9.0830 O         1 <0>         0.0000
  44244 WAT       -31.1820  -72.1660   -8.8330 O         1 <0>         0.0018
  44245 WAT       -31.1820  -72.1660   -8.5830 O         1 <0>         0.0152
  44246 WAT       -31.1820  -72.1660   -8.3330 O         1 <0>         0.0487
  44247 WAT       -31.1820  -72.1660   -8.0830 O         1 <0>         0.0910
  44248 WAT       -31.1820  -72.1660   -7.8330 O         1 <0>         0.1085
  44249 WAT       -31.1820  -72.1660   -7.5830 O         1 <0>         0.0840
  44250 WAT       -31.1820  -72.1660   -7.3330 O         1 <0>         0.0426
  44251 WAT       -31.1820  -72.1660   -7.0830 O         1 <0>         0.0147
  44252 WAT       -31.1820  -72.1660   -6.8330 O         1 <0>         0.0039
  44253 WAT       -31.1820  -72.1660   -6.5830 O         1 <0>         0.0014
  44254 WAT       -31.1820  -72.1660   -6.3330 O         1 <0>         0.0016
  44255 WAT       -31.1820  -72.1660   -6.0830 O         1 <0>         0.0053
  44256 WAT       -31.1820  -72.1660   -5.8330 O         1 <0>         0.0200
  44257 WAT       -31.1820  -72.1660   -5.5830 O         1 <0>         0.0604
  44258 WAT       -31.1820  -72.1660   -5.3330 O         1 <0>         0.1351
  44259 WAT       -31.1820  -72.1660   -5.0830 O         1 <0>         0.2217
  44260 WAT       -31.1820  -72.1660   -4.8330 O         1 <0>         0.2683
  44261 WAT       -31.1820  -72.1660   -4.5830 O         1 <0>         0.2419
  44262 WAT       -31.1820  -72.1660   -4.3330 O         1 <0>         0.1656
  44263 WAT       -31.1820  -72.1660   -4.0830 O         1 <0>         0.0880
  44264 WAT       -31.1820  -72.1660   -3.8330 O         1 <0>         0.0375
  44265 WAT       -31.1820  -72.1660   -3.5830 O         1 <0>         0.0138
  44266 WAT       -31.1820  -72.1660   -3.3330 O         1 <0>         0.0048
  44267 WAT       -31.1820  -72.1660   -3.0830 O         1 <0>         0.0016
  44268 WAT       -31.1820  -72.1660   -2.8330 O         1 <0>         0.0005
  44269 WAT       -31.1820  -72.1660   -2.5830 O         1 <0>         0.0001
  44270 WAT       -31.1820  -72.1660   -2.3330 O         1 <0>         0.0000
  44271 WAT       -31.1820  -72.1660   -2.0830 O         1 <0>         0.0000
  44272 WAT       -31.1820  -72.1660   -1.8330 O         1 <0>         0.0000
  44273 WAT       -31.1820  -72.1660   -1.5830 O         1 <0>         0.0000
  44274 WAT       -31.1820  -72.1660   -1.3330 O         1 <0>         0.0000
  44275 WAT       -31.1820  -72.1660   -1.0830 O         1 <0>         0.0000
  44276 WAT       -31.1820  -72.1660   -0.8330 O         1 <0>         0.0000
  44277 WAT       -31.1820  -72.1660   -0.5830 O         1 <0>         0.0000
  44278 WAT       -31.1820  -72.1660   -0.3330 O         1 <0>         0.0000
  44279 WAT       -31.1820  -72.1660   -0.0830 O         1 <0>         0.0000
  44280 WAT       -31.1820  -71.9160   -9.8330 O         1 <0>         0.0000
  44281 WAT       -31.1820  -71.9160   -9.5830 O         1 <0>         0.0000
  44282 WAT       -31.1820  -71.9160   -9.3330 O         1 <0>         0.0000
  44283 WAT       -31.1820  -71.9160   -9.0830 O         1 <0>         0.0003
  44284 WAT       -31.1820  -71.9160   -8.8330 O         1 <0>         0.0052
  44285 WAT       -31.1820  -71.9160   -8.5830 O         1 <0>         0.0294
  44286 WAT       -31.1820  -71.9160   -8.3330 O         1 <0>         0.0819
  44287 WAT       -31.1820  -71.9160   -8.0830 O         1 <0>         0.1413
  44288 WAT       -31.1820  -71.9160   -7.8330 O         1 <0>         0.1577
  44289 WAT       -31.1820  -71.9160   -7.5830 O         1 <0>         0.1150
  44290 WAT       -31.1820  -71.9160   -7.3330 O         1 <0>         0.0548
  44291 WAT       -31.1820  -71.9160   -7.0830 O         1 <0>         0.0172
  44292 WAT       -31.1820  -71.9160   -6.8330 O         1 <0>         0.0040
  44293 WAT       -31.1820  -71.9160   -6.5830 O         1 <0>         0.0012
  44294 WAT       -31.1820  -71.9160   -6.3330 O         1 <0>         0.0012
  44295 WAT       -31.1820  -71.9160   -6.0830 O         1 <0>         0.0034
  44296 WAT       -31.1820  -71.9160   -5.8330 O         1 <0>         0.0130
  44297 WAT       -31.1820  -71.9160   -5.5830 O         1 <0>         0.0396
  44298 WAT       -31.1820  -71.9160   -5.3330 O         1 <0>         0.0890
  44299 WAT       -31.1820  -71.9160   -5.0830 O         1 <0>         0.1454
  44300 WAT       -31.1820  -71.9160   -4.8330 O         1 <0>         0.1742
  44301 WAT       -31.1820  -71.9160   -4.5830 O         1 <0>         0.1559
  44302 WAT       -31.1820  -71.9160   -4.3330 O         1 <0>         0.1066
  44303 WAT       -31.1820  -71.9160   -4.0830 O         1 <0>         0.0569
  44304 WAT       -31.1820  -71.9160   -3.8330 O         1 <0>         0.0247
  44305 WAT       -31.1820  -71.9160   -3.5830 O         1 <0>         0.0093
  44306 WAT       -31.1820  -71.9160   -3.3330 O         1 <0>         0.0034
  44307 WAT       -31.1820  -71.9160   -3.0830 O         1 <0>         0.0012
  44308 WAT       -31.1820  -71.9160   -2.8330 O         1 <0>         0.0004
  44309 WAT       -31.1820  -71.9160   -2.5830 O         1 <0>         0.0001
  44310 WAT       -31.1820  -71.9160   -2.3330 O         1 <0>         0.0000
  44311 WAT       -31.1820  -71.9160   -2.0830 O         1 <0>         0.0000
  44312 WAT       -31.1820  -71.9160   -1.8330 O         1 <0>         0.0000
  44313 WAT       -31.1820  -71.9160   -1.5830 O         1 <0>         0.0000
  44314 WAT       -31.1820  -71.9160   -1.3330 O         1 <0>         0.0000
  44315 WAT       -31.1820  -71.9160   -1.0830 O         1 <0>         0.0000
  44316 WAT       -31.1820  -71.9160   -0.8330 O         1 <0>         0.0000
  44317 WAT       -31.1820  -71.9160   -0.5830 O         1 <0>         0.0000
  44318 WAT       -31.1820  -71.9160   -0.3330 O         1 <0>         0.0000
  44319 WAT       -31.1820  -71.9160   -0.0830 O         1 <0>         0.0000
  44320 WAT       -31.1820  -71.6660   -9.8330 O         1 <0>         0.0000
  44321 WAT       -31.1820  -71.6660   -9.5830 O         1 <0>         0.0000
  44322 WAT       -31.1820  -71.6660   -9.3330 O         1 <0>         0.0000
  44323 WAT       -31.1820  -71.6660   -9.0830 O         1 <0>         0.0007
  44324 WAT       -31.1820  -71.6660   -8.8330 O         1 <0>         0.0083
  44325 WAT       -31.1820  -71.6660   -8.5830 O         1 <0>         0.0376
  44326 WAT       -31.1820  -71.6660   -8.3330 O         1 <0>         0.0949
  44327 WAT       -31.1820  -71.6660   -8.0830 O         1 <0>         0.1515
  44328 WAT       -31.1820  -71.6660   -7.8330 O         1 <0>         0.1578
  44329 WAT       -31.1820  -71.6660   -7.5830 O         1 <0>         0.1078
  44330 WAT       -31.1820  -71.6660   -7.3330 O         1 <0>         0.0480
  44331 WAT       -31.1820  -71.6660   -7.0830 O         1 <0>         0.0135
  44332 WAT       -31.1820  -71.6660   -6.8330 O         1 <0>         0.0027
  44333 WAT       -31.1820  -71.6660   -6.5830 O         1 <0>         0.0007
  44334 WAT       -31.1820  -71.6660   -6.3330 O         1 <0>         0.0006
  44335 WAT       -31.1820  -71.6660   -6.0830 O         1 <0>         0.0018
  44336 WAT       -31.1820  -71.6660   -5.8330 O         1 <0>         0.0071
  44337 WAT       -31.1820  -71.6660   -5.5830 O         1 <0>         0.0218
  44338 WAT       -31.1820  -71.6660   -5.3330 O         1 <0>         0.0491
  44339 WAT       -31.1820  -71.6660   -5.0830 O         1 <0>         0.0796
  44340 WAT       -31.1820  -71.6660   -4.8330 O         1 <0>         0.0939
  44341 WAT       -31.1820  -71.6660   -4.5830 O         1 <0>         0.0824
  44342 WAT       -31.1820  -71.6660   -4.3330 O         1 <0>         0.0552
  44343 WAT       -31.1820  -71.6660   -4.0830 O         1 <0>         0.0290
  44344 WAT       -31.1820  -71.6660   -3.8330 O         1 <0>         0.0125
  44345 WAT       -31.1820  -71.6660   -3.5830 O         1 <0>         0.0047
  44346 WAT       -31.1820  -71.6660   -3.3330 O         1 <0>         0.0017
  44347 WAT       -31.1820  -71.6660   -3.0830 O         1 <0>         0.0007
  44348 WAT       -31.1820  -71.6660   -2.8330 O         1 <0>         0.0003
  44349 WAT       -31.1820  -71.6660   -2.5830 O         1 <0>         0.0001
  44350 WAT       -31.1820  -71.6660   -2.3330 O         1 <0>         0.0000
  44351 WAT       -31.1820  -71.6660   -2.0830 O         1 <0>         0.0000
  44352 WAT       -31.1820  -71.6660   -1.8330 O         1 <0>         0.0000
  44353 WAT       -31.1820  -71.6660   -1.5830 O         1 <0>         0.0000
  44354 WAT       -31.1820  -71.6660   -1.3330 O         1 <0>         0.0000
  44355 WAT       -31.1820  -71.6660   -1.0830 O         1 <0>         0.0000
  44356 WAT       -31.1820  -71.6660   -0.8330 O         1 <0>         0.0000
  44357 WAT       -31.1820  -71.6660   -0.5830 O         1 <0>         0.0000
  44358 WAT       -31.1820  -71.6660   -0.3330 O         1 <0>         0.0000
  44359 WAT       -31.1820  -71.6660   -0.0830 O         1 <0>         0.0000
  44360 WAT       -31.1820  -71.4160   -9.8330 O         1 <0>         0.0000
  44361 WAT       -31.1820  -71.4160   -9.5830 O         1 <0>         0.0000
  44362 WAT       -31.1820  -71.4160   -9.3330 O         1 <0>         0.0001
  44363 WAT       -31.1820  -71.4160   -9.0830 O         1 <0>         0.0011
  44364 WAT       -31.1820  -71.4160   -8.8330 O         1 <0>         0.0086
  44365 WAT       -31.1820  -71.4160   -8.5830 O         1 <0>         0.0335
  44366 WAT       -31.1820  -71.4160   -8.3330 O         1 <0>         0.0775
  44367 WAT       -31.1820  -71.4160   -8.0830 O         1 <0>         0.1144
  44368 WAT       -31.1820  -71.4160   -7.8330 O         1 <0>         0.1104
  44369 WAT       -31.1820  -71.4160   -7.5830 O         1 <0>         0.0701
  44370 WAT       -31.1820  -71.4160   -7.3330 O         1 <0>         0.0284
  44371 WAT       -31.1820  -71.4160   -7.0830 O         1 <0>         0.0069
  44372 WAT       -31.1820  -71.4160   -6.8330 O         1 <0>         0.0011
  44373 WAT       -31.1820  -71.4160   -6.5830 O         1 <0>         0.0003
  44374 WAT       -31.1820  -71.4160   -6.3330 O         1 <0>         0.0003
  44375 WAT       -31.1820  -71.4160   -6.0830 O         1 <0>         0.0009
  44376 WAT       -31.1820  -71.4160   -5.8330 O         1 <0>         0.0035
  44377 WAT       -31.1820  -71.4160   -5.5830 O         1 <0>         0.0105
  44378 WAT       -31.1820  -71.4160   -5.3330 O         1 <0>         0.0232
  44379 WAT       -31.1820  -71.4160   -5.0830 O         1 <0>         0.0369
  44380 WAT       -31.1820  -71.4160   -4.8330 O         1 <0>         0.0425
  44381 WAT       -31.1820  -71.4160   -4.5830 O         1 <0>         0.0360
  44382 WAT       -31.1820  -71.4160   -4.3330 O         1 <0>         0.0231
  44383 WAT       -31.1820  -71.4160   -4.0830 O         1 <0>         0.0116
  44384 WAT       -31.1820  -71.4160   -3.8330 O         1 <0>         0.0048
  44385 WAT       -31.1820  -71.4160   -3.5830 O         1 <0>         0.0017
  44386 WAT       -31.1820  -71.4160   -3.3330 O         1 <0>         0.0006
  44387 WAT       -31.1820  -71.4160   -3.0830 O         1 <0>         0.0003
  44388 WAT       -31.1820  -71.4160   -2.8330 O         1 <0>         0.0001
  44389 WAT       -31.1820  -71.4160   -2.5830 O         1 <0>         0.0000
  44390 WAT       -31.1820  -71.4160   -2.3330 O         1 <0>         0.0000
  44391 WAT       -31.1820  -71.4160   -2.0830 O         1 <0>         0.0000
  44392 WAT       -31.1820  -71.4160   -1.8330 O         1 <0>         0.0000
  44393 WAT       -31.1820  -71.4160   -1.5830 O         1 <0>         0.0000
  44394 WAT       -31.1820  -71.4160   -1.3330 O         1 <0>         0.0000
  44395 WAT       -31.1820  -71.4160   -1.0830 O         1 <0>         0.0000
  44396 WAT       -31.1820  -71.4160   -0.8330 O         1 <0>         0.0000
  44397 WAT       -31.1820  -71.4160   -0.5830 O         1 <0>         0.0000
  44398 WAT       -31.1820  -71.4160   -0.3330 O         1 <0>         0.0000
  44399 WAT       -31.1820  -71.4160   -0.0830 O         1 <0>         0.0000
  44400 WAT       -31.1820  -71.1660   -9.8330 O         1 <0>         0.0000
  44401 WAT       -31.1820  -71.1660   -9.5830 O         1 <0>         0.0000
  44402 WAT       -31.1820  -71.1660   -9.3330 O         1 <0>         0.0001
  44403 WAT       -31.1820  -71.1660   -9.0830 O         1 <0>         0.0010
  44404 WAT       -31.1820  -71.1660   -8.8330 O         1 <0>         0.0063
  44405 WAT       -31.1820  -71.1660   -8.5830 O         1 <0>         0.0214
  44406 WAT       -31.1820  -71.1660   -8.3330 O         1 <0>         0.0453
  44407 WAT       -31.1820  -71.1660   -8.0830 O         1 <0>         0.0614
  44408 WAT       -31.1820  -71.1660   -7.8330 O         1 <0>         0.0545
  44409 WAT       -31.1820  -71.1660   -7.5830 O         1 <0>         0.0314
  44410 WAT       -31.1820  -71.1660   -7.3330 O         1 <0>         0.0111
  44411 WAT       -31.1820  -71.1660   -7.0830 O         1 <0>         0.0023
  44412 WAT       -31.1820  -71.1660   -6.8330 O         1 <0>         0.0003
  44413 WAT       -31.1820  -71.1660   -6.5830 O         1 <0>         0.0001
  44414 WAT       -31.1820  -71.1660   -6.3330 O         1 <0>         0.0001
  44415 WAT       -31.1820  -71.1660   -6.0830 O         1 <0>         0.0005
  44416 WAT       -31.1820  -71.1660   -5.8330 O         1 <0>         0.0016
  44417 WAT       -31.1820  -71.1660   -5.5830 O         1 <0>         0.0045
  44418 WAT       -31.1820  -71.1660   -5.3330 O         1 <0>         0.0094
  44419 WAT       -31.1820  -71.1660   -5.0830 O         1 <0>         0.0144
  44420 WAT       -31.1820  -71.1660   -4.8330 O         1 <0>         0.0159
  44421 WAT       -31.1820  -71.1660   -4.5830 O         1 <0>         0.0128
  44422 WAT       -31.1820  -71.1660   -4.3330 O         1 <0>         0.0077
  44423 WAT       -31.1820  -71.1660   -4.0830 O         1 <0>         0.0036
  44424 WAT       -31.1820  -71.1660   -3.8330 O         1 <0>         0.0014
  44425 WAT       -31.1820  -71.1660   -3.5830 O         1 <0>         0.0005
  44426 WAT       -31.1820  -71.1660   -3.3330 O         1 <0>         0.0002
  44427 WAT       -31.1820  -71.1660   -3.0830 O         1 <0>         0.0001
  44428 WAT       -31.1820  -71.1660   -2.8330 O         1 <0>         0.0000
  44429 WAT       -31.1820  -71.1660   -2.5830 O         1 <0>         0.0000
  44430 WAT       -31.1820  -71.1660   -2.3330 O         1 <0>         0.0000
  44431 WAT       -31.1820  -71.1660   -2.0830 O         1 <0>         0.0000
  44432 WAT       -31.1820  -71.1660   -1.8330 O         1 <0>         0.0000
  44433 WAT       -31.1820  -71.1660   -1.5830 O         1 <0>         0.0000
  44434 WAT       -31.1820  -71.1660   -1.3330 O         1 <0>         0.0000
  44435 WAT       -31.1820  -71.1660   -1.0830 O         1 <0>         0.0000
  44436 WAT       -31.1820  -71.1660   -0.8330 O         1 <0>         0.0000
  44437 WAT       -31.1820  -71.1660   -0.5830 O         1 <0>         0.0000
  44438 WAT       -31.1820  -71.1660   -0.3330 O         1 <0>         0.0000
  44439 WAT       -31.1820  -71.1660   -0.0830 O         1 <0>         0.0000
  44440 WAT       -31.1820  -70.9160   -9.8330 O         1 <0>         0.0000
  44441 WAT       -31.1820  -70.9160   -9.5830 O         1 <0>         0.0000
  44442 WAT       -31.1820  -70.9160   -9.3330 O         1 <0>         0.0001
  44443 WAT       -31.1820  -70.9160   -9.0830 O         1 <0>         0.0006
  44444 WAT       -31.1820  -70.9160   -8.8330 O         1 <0>         0.0034
  44445 WAT       -31.1820  -70.9160   -8.5830 O         1 <0>         0.0102
  44446 WAT       -31.1820  -70.9160   -8.3330 O         1 <0>         0.0193
  44447 WAT       -31.1820  -70.9160   -8.0830 O         1 <0>         0.0237
  44448 WAT       -31.1820  -70.9160   -7.8330 O         1 <0>         0.0190
  44449 WAT       -31.1820  -70.9160   -7.5830 O         1 <0>         0.0097
  44450 WAT       -31.1820  -70.9160   -7.3330 O         1 <0>         0.0030
  44451 WAT       -31.1820  -70.9160   -7.0830 O         1 <0>         0.0006
  44452 WAT       -31.1820  -70.9160   -6.8330 O         1 <0>         0.0001
  44453 WAT       -31.1820  -70.9160   -6.5830 O         1 <0>         0.0000
  44454 WAT       -31.1820  -70.9160   -6.3330 O         1 <0>         0.0001
  44455 WAT       -31.1820  -70.9160   -6.0830 O         1 <0>         0.0003
  44456 WAT       -31.1820  -70.9160   -5.8330 O         1 <0>         0.0008
  44457 WAT       -31.1820  -70.9160   -5.5830 O         1 <0>         0.0018
  44458 WAT       -31.1820  -70.9160   -5.3330 O         1 <0>         0.0033
  44459 WAT       -31.1820  -70.9160   -5.0830 O         1 <0>         0.0047
  44460 WAT       -31.1820  -70.9160   -4.8330 O         1 <0>         0.0048
  44461 WAT       -31.1820  -70.9160   -4.5830 O         1 <0>         0.0037
  44462 WAT       -31.1820  -70.9160   -4.3330 O         1 <0>         0.0021
  44463 WAT       -31.1820  -70.9160   -4.0830 O         1 <0>         0.0009
  44464 WAT       -31.1820  -70.9160   -3.8330 O         1 <0>         0.0003
  44465 WAT       -31.1820  -70.9160   -3.5830 O         1 <0>         0.0001
  44466 WAT       -31.1820  -70.9160   -3.3330 O         1 <0>         0.0000
  44467 WAT       -31.1820  -70.9160   -3.0830 O         1 <0>         0.0000
  44468 WAT       -31.1820  -70.9160   -2.8330 O         1 <0>         0.0000
  44469 WAT       -31.1820  -70.9160   -2.5830 O         1 <0>         0.0000
  44470 WAT       -31.1820  -70.9160   -2.3330 O         1 <0>         0.0000
  44471 WAT       -31.1820  -70.9160   -2.0830 O         1 <0>         0.0000
  44472 WAT       -31.1820  -70.9160   -1.8330 O         1 <0>         0.0000
  44473 WAT       -31.1820  -70.9160   -1.5830 O         1 <0>         0.0000
  44474 WAT       -31.1820  -70.9160   -1.3330 O         1 <0>         0.0000
  44475 WAT       -31.1820  -70.9160   -1.0830 O         1 <0>         0.0000
  44476 WAT       -31.1820  -70.9160   -0.8330 O         1 <0>         0.0000
  44477 WAT       -31.1820  -70.9160   -0.5830 O         1 <0>         0.0000
  44478 WAT       -31.1820  -70.9160   -0.3330 O         1 <0>         0.0000
  44479 WAT       -31.1820  -70.9160   -0.0830 O         1 <0>         0.0000
  44480 WAT       -31.1820  -70.6660   -9.8330 O         1 <0>         0.0000
  44481 WAT       -31.1820  -70.6660   -9.5830 O         1 <0>         0.0000
  44482 WAT       -31.1820  -70.6660   -9.3330 O         1 <0>         0.0000
  44483 WAT       -31.1820  -70.6660   -9.0830 O         1 <0>         0.0003
  44484 WAT       -31.1820  -70.6660   -8.8330 O         1 <0>         0.0014
  44485 WAT       -31.1820  -70.6660   -8.5830 O         1 <0>         0.0037
  44486 WAT       -31.1820  -70.6660   -8.3330 O         1 <0>         0.0064
  44487 WAT       -31.1820  -70.6660   -8.0830 O         1 <0>         0.0070
  44488 WAT       -31.1820  -70.6660   -7.8330 O         1 <0>         0.0050
  44489 WAT       -31.1820  -70.6660   -7.5830 O         1 <0>         0.0023
  44490 WAT       -31.1820  -70.6660   -7.3330 O         1 <0>         0.0008
  44491 WAT       -31.1820  -70.6660   -7.0830 O         1 <0>         0.0002
  44492 WAT       -31.1820  -70.6660   -6.8330 O         1 <0>         0.0001
  44493 WAT       -31.1820  -70.6660   -6.5830 O         1 <0>         0.0000
  44494 WAT       -31.1820  -70.6660   -6.3330 O         1 <0>         0.0001
  44495 WAT       -31.1820  -70.6660   -6.0830 O         1 <0>         0.0003
  44496 WAT       -31.1820  -70.6660   -5.8330 O         1 <0>         0.0006
  44497 WAT       -31.1820  -70.6660   -5.5830 O         1 <0>         0.0008
  44498 WAT       -31.1820  -70.6660   -5.3330 O         1 <0>         0.0011
  44499 WAT       -31.1820  -70.6660   -5.0830 O         1 <0>         0.0013
  44500 WAT       -31.1820  -70.6660   -4.8330 O         1 <0>         0.0013
  44501 WAT       -31.1820  -70.6660   -4.5830 O         1 <0>         0.0009
  44502 WAT       -31.1820  -70.6660   -4.3330 O         1 <0>         0.0005
  44503 WAT       -31.1820  -70.6660   -4.0830 O         1 <0>         0.0002
  44504 WAT       -31.1820  -70.6660   -3.8330 O         1 <0>         0.0001
  44505 WAT       -31.1820  -70.6660   -3.5830 O         1 <0>         0.0000
  44506 WAT       -31.1820  -70.6660   -3.3330 O         1 <0>         0.0000
  44507 WAT       -31.1820  -70.6660   -3.0830 O         1 <0>         0.0000
  44508 WAT       -31.1820  -70.6660   -2.8330 O         1 <0>         0.0000
  44509 WAT       -31.1820  -70.6660   -2.5830 O         1 <0>         0.0000
  44510 WAT       -31.1820  -70.6660   -2.3330 O         1 <0>         0.0000
  44511 WAT       -31.1820  -70.6660   -2.0830 O         1 <0>         0.0000
  44512 WAT       -31.1820  -70.6660   -1.8330 O         1 <0>         0.0000
  44513 WAT       -31.1820  -70.6660   -1.5830 O         1 <0>         0.0000
  44514 WAT       -31.1820  -70.6660   -1.3330 O         1 <0>         0.0000
  44515 WAT       -31.1820  -70.6660   -1.0830 O         1 <0>         0.0000
  44516 WAT       -31.1820  -70.6660   -0.8330 O         1 <0>         0.0000
  44517 WAT       -31.1820  -70.6660   -0.5830 O         1 <0>         0.0000
  44518 WAT       -31.1820  -70.6660   -0.3330 O         1 <0>         0.0000
  44519 WAT       -31.1820  -70.6660   -0.0830 O         1 <0>         0.0000
  44520 WAT       -31.1820  -70.4160   -9.8330 O         1 <0>         0.0000
  44521 WAT       -31.1820  -70.4160   -9.5830 O         1 <0>         0.0000
  44522 WAT       -31.1820  -70.4160   -9.3330 O         1 <0>         0.0000
  44523 WAT       -31.1820  -70.4160   -9.0830 O         1 <0>         0.0001
  44524 WAT       -31.1820  -70.4160   -8.8330 O         1 <0>         0.0005
  44525 WAT       -31.1820  -70.4160   -8.5830 O         1 <0>         0.0012
  44526 WAT       -31.1820  -70.4160   -8.3330 O         1 <0>         0.0018
  44527 WAT       -31.1820  -70.4160   -8.0830 O         1 <0>         0.0017
  44528 WAT       -31.1820  -70.4160   -7.8330 O         1 <0>         0.0011
  44529 WAT       -31.1820  -70.4160   -7.5830 O         1 <0>         0.0006
  44530 WAT       -31.1820  -70.4160   -7.3330 O         1 <0>         0.0003
  44531 WAT       -31.1820  -70.4160   -7.0830 O         1 <0>         0.0001
  44532 WAT       -31.1820  -70.4160   -6.8330 O         1 <0>         0.0001
  44533 WAT       -31.1820  -70.4160   -6.5830 O         1 <0>         0.0001
  44534 WAT       -31.1820  -70.4160   -6.3330 O         1 <0>         0.0002
  44535 WAT       -31.1820  -70.4160   -6.0830 O         1 <0>         0.0004
  44536 WAT       -31.1820  -70.4160   -5.8330 O         1 <0>         0.0006
  44537 WAT       -31.1820  -70.4160   -5.5830 O         1 <0>         0.0006
  44538 WAT       -31.1820  -70.4160   -5.3330 O         1 <0>         0.0005
  44539 WAT       -31.1820  -70.4160   -5.0830 O         1 <0>         0.0005
  44540 WAT       -31.1820  -70.4160   -4.8330 O         1 <0>         0.0004
  44541 WAT       -31.1820  -70.4160   -4.5830 O         1 <0>         0.0003
  44542 WAT       -31.1820  -70.4160   -4.3330 O         1 <0>         0.0002
  44543 WAT       -31.1820  -70.4160   -4.0830 O         1 <0>         0.0001
  44544 WAT       -31.1820  -70.4160   -3.8330 O         1 <0>         0.0000
  44545 WAT       -31.1820  -70.4160   -3.5830 O         1 <0>         0.0000
  44546 WAT       -31.1820  -70.4160   -3.3330 O         1 <0>         0.0000
  44547 WAT       -31.1820  -70.4160   -3.0830 O         1 <0>         0.0000
  44548 WAT       -31.1820  -70.4160   -2.8330 O         1 <0>         0.0000
  44549 WAT       -31.1820  -70.4160   -2.5830 O         1 <0>         0.0000
  44550 WAT       -31.1820  -70.4160   -2.3330 O         1 <0>         0.0000
  44551 WAT       -31.1820  -70.4160   -2.0830 O         1 <0>         0.0000
  44552 WAT       -31.1820  -70.4160   -1.8330 O         1 <0>         0.0000
  44553 WAT       -31.1820  -70.4160   -1.5830 O         1 <0>         0.0000
  44554 WAT       -31.1820  -70.4160   -1.3330 O         1 <0>         0.0000
  44555 WAT       -31.1820  -70.4160   -1.0830 O         1 <0>         0.0000
  44556 WAT       -31.1820  -70.4160   -0.8330 O         1 <0>         0.0000
  44557 WAT       -31.1820  -70.4160   -0.5830 O         1 <0>         0.0000
  44558 WAT       -31.1820  -70.4160   -0.3330 O         1 <0>         0.0000
  44559 WAT       -31.1820  -70.4160   -0.0830 O         1 <0>         0.0000
  44560 WAT       -31.1820  -70.1660   -9.8330 O         1 <0>         0.0000
  44561 WAT       -31.1820  -70.1660   -9.5830 O         1 <0>         0.0000
  44562 WAT       -31.1820  -70.1660   -9.3330 O         1 <0>         0.0000
  44563 WAT       -31.1820  -70.1660   -9.0830 O         1 <0>         0.0001
  44564 WAT       -31.1820  -70.1660   -8.8330 O         1 <0>         0.0003
  44565 WAT       -31.1820  -70.1660   -8.5830 O         1 <0>         0.0005
  44566 WAT       -31.1820  -70.1660   -8.3330 O         1 <0>         0.0007
  44567 WAT       -31.1820  -70.1660   -8.0830 O         1 <0>         0.0006
  44568 WAT       -31.1820  -70.1660   -7.8330 O         1 <0>         0.0005
  44569 WAT       -31.1820  -70.1660   -7.5830 O         1 <0>         0.0005
  44570 WAT       -31.1820  -70.1660   -7.3330 O         1 <0>         0.0007
  44571 WAT       -31.1820  -70.1660   -7.0830 O         1 <0>         0.0007
  44572 WAT       -31.1820  -70.1660   -6.8330 O         1 <0>         0.0005
  44573 WAT       -31.1820  -70.1660   -6.5830 O         1 <0>         0.0004
  44574 WAT       -31.1820  -70.1660   -6.3330 O         1 <0>         0.0005
  44575 WAT       -31.1820  -70.1660   -6.0830 O         1 <0>         0.0007
  44576 WAT       -31.1820  -70.1660   -5.8330 O         1 <0>         0.0008
  44577 WAT       -31.1820  -70.1660   -5.5830 O         1 <0>         0.0006
  44578 WAT       -31.1820  -70.1660   -5.3330 O         1 <0>         0.0004
  44579 WAT       -31.1820  -70.1660   -5.0830 O         1 <0>         0.0002
  44580 WAT       -31.1820  -70.1660   -4.8330 O         1 <0>         0.0002
  44581 WAT       -31.1820  -70.1660   -4.5830 O         1 <0>         0.0002
  44582 WAT       -31.1820  -70.1660   -4.3330 O         1 <0>         0.0001
  44583 WAT       -31.1820  -70.1660   -4.0830 O         1 <0>         0.0000
  44584 WAT       -31.1820  -70.1660   -3.8330 O         1 <0>         0.0000
  44585 WAT       -31.1820  -70.1660   -3.5830 O         1 <0>         0.0000
  44586 WAT       -31.1820  -70.1660   -3.3330 O         1 <0>         0.0000
  44587 WAT       -31.1820  -70.1660   -3.0830 O         1 <0>         0.0000
  44588 WAT       -31.1820  -70.1660   -2.8330 O         1 <0>         0.0000
  44589 WAT       -31.1820  -70.1660   -2.5830 O         1 <0>         0.0000
  44590 WAT       -31.1820  -70.1660   -2.3330 O         1 <0>         0.0000
  44591 WAT       -31.1820  -70.1660   -2.0830 O         1 <0>         0.0000
  44592 WAT       -31.1820  -70.1660   -1.8330 O         1 <0>         0.0000
  44593 WAT       -31.1820  -70.1660   -1.5830 O         1 <0>         0.0000
  44594 WAT       -31.1820  -70.1660   -1.3330 O         1 <0>         0.0000
  44595 WAT       -31.1820  -70.1660   -1.0830 O         1 <0>         0.0000
  44596 WAT       -31.1820  -70.1660   -0.8330 O         1 <0>         0.0000
  44597 WAT       -31.1820  -70.1660   -0.5830 O         1 <0>         0.0000
  44598 WAT       -31.1820  -70.1660   -0.3330 O         1 <0>         0.0000
  44599 WAT       -31.1820  -70.1660   -0.0830 O         1 <0>         0.0000
  44600 WAT       -31.1820  -69.9160   -9.8330 O         1 <0>         0.0000
  44601 WAT       -31.1820  -69.9160   -9.5830 O         1 <0>         0.0000
  44602 WAT       -31.1820  -69.9160   -9.3330 O         1 <0>         0.0000
  44603 WAT       -31.1820  -69.9160   -9.0830 O         1 <0>         0.0001
  44604 WAT       -31.1820  -69.9160   -8.8330 O         1 <0>         0.0004
  44605 WAT       -31.1820  -69.9160   -8.5830 O         1 <0>         0.0006
  44606 WAT       -31.1820  -69.9160   -8.3330 O         1 <0>         0.0007
  44607 WAT       -31.1820  -69.9160   -8.0830 O         1 <0>         0.0010
  44608 WAT       -31.1820  -69.9160   -7.8330 O         1 <0>         0.0020
  44609 WAT       -31.1820  -69.9160   -7.5830 O         1 <0>         0.0042
  44610 WAT       -31.1820  -69.9160   -7.3330 O         1 <0>         0.0063
  44611 WAT       -31.1820  -69.9160   -7.0830 O         1 <0>         0.0064
  44612 WAT       -31.1820  -69.9160   -6.8330 O         1 <0>         0.0045
  44613 WAT       -31.1820  -69.9160   -6.5830 O         1 <0>         0.0023
  44614 WAT       -31.1820  -69.9160   -6.3330 O         1 <0>         0.0014
  44615 WAT       -31.1820  -69.9160   -6.0830 O         1 <0>         0.0012
  44616 WAT       -31.1820  -69.9160   -5.8330 O         1 <0>         0.0011
  44617 WAT       -31.1820  -69.9160   -5.5830 O         1 <0>         0.0007
  44618 WAT       -31.1820  -69.9160   -5.3330 O         1 <0>         0.0004
  44619 WAT       -31.1820  -69.9160   -5.0830 O         1 <0>         0.0002
  44620 WAT       -31.1820  -69.9160   -4.8330 O         1 <0>         0.0001
  44621 WAT       -31.1820  -69.9160   -4.5830 O         1 <0>         0.0001
  44622 WAT       -31.1820  -69.9160   -4.3330 O         1 <0>         0.0000
  44623 WAT       -31.1820  -69.9160   -4.0830 O         1 <0>         0.0000
  44624 WAT       -31.1820  -69.9160   -3.8330 O         1 <0>         0.0000
  44625 WAT       -31.1820  -69.9160   -3.5830 O         1 <0>         0.0000
  44626 WAT       -31.1820  -69.9160   -3.3330 O         1 <0>         0.0000
  44627 WAT       -31.1820  -69.9160   -3.0830 O         1 <0>         0.0000
  44628 WAT       -31.1820  -69.9160   -2.8330 O         1 <0>         0.0000
  44629 WAT       -31.1820  -69.9160   -2.5830 O         1 <0>         0.0000
  44630 WAT       -31.1820  -69.9160   -2.3330 O         1 <0>         0.0000
  44631 WAT       -31.1820  -69.9160   -2.0830 O         1 <0>         0.0000
  44632 WAT       -31.1820  -69.9160   -1.8330 O         1 <0>         0.0000
  44633 WAT       -31.1820  -69.9160   -1.5830 O         1 <0>         0.0000
  44634 WAT       -31.1820  -69.9160   -1.3330 O         1 <0>         0.0000
  44635 WAT       -31.1820  -69.9160   -1.0830 O         1 <0>         0.0000
  44636 WAT       -31.1820  -69.9160   -0.8330 O         1 <0>         0.0000
  44637 WAT       -31.1820  -69.9160   -0.5830 O         1 <0>         0.0000
  44638 WAT       -31.1820  -69.9160   -0.3330 O         1 <0>         0.0000
  44639 WAT       -31.1820  -69.9160   -0.0830 O         1 <0>         0.0000
  44640 WAT       -31.1820  -69.6660   -9.8330 O         1 <0>         0.0000
  44641 WAT       -31.1820  -69.6660   -9.5830 O         1 <0>         0.0000
  44642 WAT       -31.1820  -69.6660   -9.3330 O         1 <0>         0.0000
  44643 WAT       -31.1820  -69.6660   -9.0830 O         1 <0>         0.0002
  44644 WAT       -31.1820  -69.6660   -8.8330 O         1 <0>         0.0005
  44645 WAT       -31.1820  -69.6660   -8.5830 O         1 <0>         0.0009
  44646 WAT       -31.1820  -69.6660   -8.3330 O         1 <0>         0.0015
  44647 WAT       -31.1820  -69.6660   -8.0830 O         1 <0>         0.0034
  44648 WAT       -31.1820  -69.6660   -7.8330 O         1 <0>         0.0091
  44649 WAT       -31.1820  -69.6660   -7.5830 O         1 <0>         0.0189
  44650 WAT       -31.1820  -69.6660   -7.3330 O         1 <0>         0.0273
  44651 WAT       -31.1820  -69.6660   -7.0830 O         1 <0>         0.0275
  44652 WAT       -31.1820  -69.6660   -6.8330 O         1 <0>         0.0195
  44653 WAT       -31.1820  -69.6660   -6.5830 O         1 <0>         0.0099
  44654 WAT       -31.1820  -69.6660   -6.3330 O         1 <0>         0.0040
  44655 WAT       -31.1820  -69.6660   -6.0830 O         1 <0>         0.0020
  44656 WAT       -31.1820  -69.6660   -5.8330 O         1 <0>         0.0013
  44657 WAT       -31.1820  -69.6660   -5.5830 O         1 <0>         0.0007
  44658 WAT       -31.1820  -69.6660   -5.3330 O         1 <0>         0.0003
  44659 WAT       -31.1820  -69.6660   -5.0830 O         1 <0>         0.0001
  44660 WAT       -31.1820  -69.6660   -4.8330 O         1 <0>         0.0001
  44661 WAT       -31.1820  -69.6660   -4.5830 O         1 <0>         0.0000
  44662 WAT       -31.1820  -69.6660   -4.3330 O         1 <0>         0.0000
  44663 WAT       -31.1820  -69.6660   -4.0830 O         1 <0>         0.0000
  44664 WAT       -31.1820  -69.6660   -3.8330 O         1 <0>         0.0000
  44665 WAT       -31.1820  -69.6660   -3.5830 O         1 <0>         0.0000
  44666 WAT       -31.1820  -69.6660   -3.3330 O         1 <0>         0.0000
  44667 WAT       -31.1820  -69.6660   -3.0830 O         1 <0>         0.0000
  44668 WAT       -31.1820  -69.6660   -2.8330 O         1 <0>         0.0000
  44669 WAT       -31.1820  -69.6660   -2.5830 O         1 <0>         0.0000
  44670 WAT       -31.1820  -69.6660   -2.3330 O         1 <0>         0.0000
  44671 WAT       -31.1820  -69.6660   -2.0830 O         1 <0>         0.0000
  44672 WAT       -31.1820  -69.6660   -1.8330 O         1 <0>         0.0000
  44673 WAT       -31.1820  -69.6660   -1.5830 O         1 <0>         0.0000
  44674 WAT       -31.1820  -69.6660   -1.3330 O         1 <0>         0.0000
  44675 WAT       -31.1820  -69.6660   -1.0830 O         1 <0>         0.0000
  44676 WAT       -31.1820  -69.6660   -0.8330 O         1 <0>         0.0000
  44677 WAT       -31.1820  -69.6660   -0.5830 O         1 <0>         0.0000
  44678 WAT       -31.1820  -69.6660   -0.3330 O         1 <0>         0.0000
  44679 WAT       -31.1820  -69.6660   -0.0830 O         1 <0>         0.0000
  44680 WAT       -31.1820  -69.4160   -9.8330 O         1 <0>         0.0000
  44681 WAT       -31.1820  -69.4160   -9.5830 O         1 <0>         0.0000
  44682 WAT       -31.1820  -69.4160   -9.3330 O         1 <0>         0.0000
  44683 WAT       -31.1820  -69.4160   -9.0830 O         1 <0>         0.0002
  44684 WAT       -31.1820  -69.4160   -8.8330 O         1 <0>         0.0006
  44685 WAT       -31.1820  -69.4160   -8.5830 O         1 <0>         0.0013
  44686 WAT       -31.1820  -69.4160   -8.3330 O         1 <0>         0.0028
  44687 WAT       -31.1820  -69.4160   -8.0830 O         1 <0>         0.0082
  44688 WAT       -31.1820  -69.4160   -7.8330 O         1 <0>         0.0225
  44689 WAT       -31.1820  -69.4160   -7.5830 O         1 <0>         0.0461
  44690 WAT       -31.1820  -69.4160   -7.3330 O         1 <0>         0.0667
  44691 WAT       -31.1820  -69.4160   -7.0830 O         1 <0>         0.0674
  44692 WAT       -31.1820  -69.4160   -6.8330 O         1 <0>         0.0478
  44693 WAT       -31.1820  -69.4160   -6.5830 O         1 <0>         0.0242
  44694 WAT       -31.1820  -69.4160   -6.3330 O         1 <0>         0.0091
  44695 WAT       -31.1820  -69.4160   -6.0830 O         1 <0>         0.0030
  44696 WAT       -31.1820  -69.4160   -5.8330 O         1 <0>         0.0013
  44697 WAT       -31.1820  -69.4160   -5.5830 O         1 <0>         0.0006
  44698 WAT       -31.1820  -69.4160   -5.3330 O         1 <0>         0.0003
  44699 WAT       -31.1820  -69.4160   -5.0830 O         1 <0>         0.0001
  44700 WAT       -31.1820  -69.4160   -4.8330 O         1 <0>         0.0000
  44701 WAT       -31.1820  -69.4160   -4.5830 O         1 <0>         0.0000
  44702 WAT       -31.1820  -69.4160   -4.3330 O         1 <0>         0.0000
  44703 WAT       -31.1820  -69.4160   -4.0830 O         1 <0>         0.0000
  44704 WAT       -31.1820  -69.4160   -3.8330 O         1 <0>         0.0000
  44705 WAT       -31.1820  -69.4160   -3.5830 O         1 <0>         0.0000
  44706 WAT       -31.1820  -69.4160   -3.3330 O         1 <0>         0.0000
  44707 WAT       -31.1820  -69.4160   -3.0830 O         1 <0>         0.0000
  44708 WAT       -31.1820  -69.4160   -2.8330 O         1 <0>         0.0000
  44709 WAT       -31.1820  -69.4160   -2.5830 O         1 <0>         0.0000
  44710 WAT       -31.1820  -69.4160   -2.3330 O         1 <0>         0.0000
  44711 WAT       -31.1820  -69.4160   -2.0830 O         1 <0>         0.0000
  44712 WAT       -31.1820  -69.4160   -1.8330 O         1 <0>         0.0000
  44713 WAT       -31.1820  -69.4160   -1.5830 O         1 <0>         0.0000
  44714 WAT       -31.1820  -69.4160   -1.3330 O         1 <0>         0.0000
  44715 WAT       -31.1820  -69.4160   -1.0830 O         1 <0>         0.0000
  44716 WAT       -31.1820  -69.4160   -0.8330 O         1 <0>         0.0000
  44717 WAT       -31.1820  -69.4160   -0.5830 O         1 <0>         0.0000
  44718 WAT       -31.1820  -69.4160   -0.3330 O         1 <0>         0.0000
  44719 WAT       -31.1820  -69.4160   -0.0830 O         1 <0>         0.0000
  44720 WAT       -31.1820  -69.1660   -9.8330 O         1 <0>         0.0000
  44721 WAT       -31.1820  -69.1660   -9.5830 O         1 <0>         0.0000
  44722 WAT       -31.1820  -69.1660   -9.3330 O         1 <0>         0.0001
  44723 WAT       -31.1820  -69.1660   -9.0830 O         1 <0>         0.0002
  44724 WAT       -31.1820  -69.1660   -8.8330 O         1 <0>         0.0006
  44725 WAT       -31.1820  -69.1660   -8.5830 O         1 <0>         0.0014
  44726 WAT       -31.1820  -69.1660   -8.3330 O         1 <0>         0.0037
  44727 WAT       -31.1820  -69.1660   -8.0830 O         1 <0>         0.0119
  44728 WAT       -31.1820  -69.1660   -7.8330 O         1 <0>         0.0335
  44729 WAT       -31.1820  -69.1660   -7.5830 O         1 <0>         0.0694
  44730 WAT       -31.1820  -69.1660   -7.3330 O         1 <0>         0.1012
  44731 WAT       -31.1820  -69.1660   -7.0830 O         1 <0>         0.1028
  44732 WAT       -31.1820  -69.1660   -6.8330 O         1 <0>         0.0730
  44733 WAT       -31.1820  -69.1660   -6.5830 O         1 <0>         0.0367
  44734 WAT       -31.1820  -69.1660   -6.3330 O         1 <0>         0.0133
  44735 WAT       -31.1820  -69.1660   -6.0830 O         1 <0>         0.0038
  44736 WAT       -31.1820  -69.1660   -5.8330 O         1 <0>         0.0012
  44737 WAT       -31.1820  -69.1660   -5.5830 O         1 <0>         0.0004
  44738 WAT       -31.1820  -69.1660   -5.3330 O         1 <0>         0.0002
  44739 WAT       -31.1820  -69.1660   -5.0830 O         1 <0>         0.0000
  44740 WAT       -31.1820  -69.1660   -4.8330 O         1 <0>         0.0000
  44741 WAT       -31.1820  -69.1660   -4.5830 O         1 <0>         0.0000
  44742 WAT       -31.1820  -69.1660   -4.3330 O         1 <0>         0.0000
  44743 WAT       -31.1820  -69.1660   -4.0830 O         1 <0>         0.0000
  44744 WAT       -31.1820  -69.1660   -3.8330 O         1 <0>         0.0000
  44745 WAT       -31.1820  -69.1660   -3.5830 O         1 <0>         0.0000
  44746 WAT       -31.1820  -69.1660   -3.3330 O         1 <0>         0.0000
  44747 WAT       -31.1820  -69.1660   -3.0830 O         1 <0>         0.0000
  44748 WAT       -31.1820  -69.1660   -2.8330 O         1 <0>         0.0000
  44749 WAT       -31.1820  -69.1660   -2.5830 O         1 <0>         0.0000
  44750 WAT       -31.1820  -69.1660   -2.3330 O         1 <0>         0.0000
  44751 WAT       -31.1820  -69.1660   -2.0830 O         1 <0>         0.0000
  44752 WAT       -31.1820  -69.1660   -1.8330 O         1 <0>         0.0000
  44753 WAT       -31.1820  -69.1660   -1.5830 O         1 <0>         0.0000
  44754 WAT       -31.1820  -69.1660   -1.3330 O         1 <0>         0.0000
  44755 WAT       -31.1820  -69.1660   -1.0830 O         1 <0>         0.0000
  44756 WAT       -31.1820  -69.1660   -0.8330 O         1 <0>         0.0000
  44757 WAT       -31.1820  -69.1660   -0.5830 O         1 <0>         0.0000
  44758 WAT       -31.1820  -69.1660   -0.3330 O         1 <0>         0.0000
  44759 WAT       -31.1820  -69.1660   -0.0830 O         1 <0>         0.0000
  44760 WAT       -31.1820  -68.9160   -9.8330 O         1 <0>         0.0000
  44761 WAT       -31.1820  -68.9160   -9.5830 O         1 <0>         0.0000
  44762 WAT       -31.1820  -68.9160   -9.3330 O         1 <0>         0.0000
  44763 WAT       -31.1820  -68.9160   -9.0830 O         1 <0>         0.0002
  44764 WAT       -31.1820  -68.9160   -8.8330 O         1 <0>         0.0004
  44765 WAT       -31.1820  -68.9160   -8.5830 O         1 <0>         0.0010
  44766 WAT       -31.1820  -68.9160   -8.3330 O         1 <0>         0.0030
  44767 WAT       -31.1820  -68.9160   -8.0830 O         1 <0>         0.0105
  44768 WAT       -31.1820  -68.9160   -7.8330 O         1 <0>         0.0305
  44769 WAT       -31.1820  -68.9160   -7.5830 O         1 <0>         0.0641
  44770 WAT       -31.1820  -68.9160   -7.3330 O         1 <0>         0.0943
  44771 WAT       -31.1820  -68.9160   -7.0830 O         1 <0>         0.0962
  44772 WAT       -31.1820  -68.9160   -6.8330 O         1 <0>         0.0683
  44773 WAT       -31.1820  -68.9160   -6.5830 O         1 <0>         0.0341
  44774 WAT       -31.1820  -68.9160   -6.3330 O         1 <0>         0.0121
  44775 WAT       -31.1820  -68.9160   -6.0830 O         1 <0>         0.0032
  44776 WAT       -31.1820  -68.9160   -5.8330 O         1 <0>         0.0008
  44777 WAT       -31.1820  -68.9160   -5.5830 O         1 <0>         0.0003
  44778 WAT       -31.1820  -68.9160   -5.3330 O         1 <0>         0.0001
  44779 WAT       -31.1820  -68.9160   -5.0830 O         1 <0>         0.0000
  44780 WAT       -31.1820  -68.9160   -4.8330 O         1 <0>         0.0000
  44781 WAT       -31.1820  -68.9160   -4.5830 O         1 <0>         0.0000
  44782 WAT       -31.1820  -68.9160   -4.3330 O         1 <0>         0.0000
  44783 WAT       -31.1820  -68.9160   -4.0830 O         1 <0>         0.0000
  44784 WAT       -31.1820  -68.9160   -3.8330 O         1 <0>         0.0000
  44785 WAT       -31.1820  -68.9160   -3.5830 O         1 <0>         0.0000
  44786 WAT       -31.1820  -68.9160   -3.3330 O         1 <0>         0.0000
  44787 WAT       -31.1820  -68.9160   -3.0830 O         1 <0>         0.0000
  44788 WAT       -31.1820  -68.9160   -2.8330 O         1 <0>         0.0000
  44789 WAT       -31.1820  -68.9160   -2.5830 O         1 <0>         0.0000
  44790 WAT       -31.1820  -68.9160   -2.3330 O         1 <0>         0.0000
  44791 WAT       -31.1820  -68.9160   -2.0830 O         1 <0>         0.0000
  44792 WAT       -31.1820  -68.9160   -1.8330 O         1 <0>         0.0000
  44793 WAT       -31.1820  -68.9160   -1.5830 O         1 <0>         0.0000
  44794 WAT       -31.1820  -68.9160   -1.3330 O         1 <0>         0.0000
  44795 WAT       -31.1820  -68.9160   -1.0830 O         1 <0>         0.0000
  44796 WAT       -31.1820  -68.9160   -0.8330 O         1 <0>         0.0000
  44797 WAT       -31.1820  -68.9160   -0.5830 O         1 <0>         0.0000
  44798 WAT       -31.1820  -68.9160   -0.3330 O         1 <0>         0.0000
  44799 WAT       -31.1820  -68.9160   -0.0830 O         1 <0>         0.0000
  44800 WAT       -30.9320  -77.4160   -9.8330 O         1 <0>         0.0000
  44801 WAT       -30.9320  -77.4160   -9.5830 O         1 <0>         0.0000
  44802 WAT       -30.9320  -77.4160   -9.3330 O         1 <0>         0.0000
  44803 WAT       -30.9320  -77.4160   -9.0830 O         1 <0>         0.0000
  44804 WAT       -30.9320  -77.4160   -8.8330 O         1 <0>         0.0000
  44805 WAT       -30.9320  -77.4160   -8.5830 O         1 <0>         0.0000
  44806 WAT       -30.9320  -77.4160   -8.3330 O         1 <0>         0.0000
  44807 WAT       -30.9320  -77.4160   -8.0830 O         1 <0>         0.0000
  44808 WAT       -30.9320  -77.4160   -7.8330 O         1 <0>         0.0000
  44809 WAT       -30.9320  -77.4160   -7.5830 O         1 <0>         0.0000
  44810 WAT       -30.9320  -77.4160   -7.3330 O         1 <0>         0.0000
  44811 WAT       -30.9320  -77.4160   -7.0830 O         1 <0>         0.0000
  44812 WAT       -30.9320  -77.4160   -6.8330 O         1 <0>         0.0000
  44813 WAT       -30.9320  -77.4160   -6.5830 O         1 <0>         0.0000
  44814 WAT       -30.9320  -77.4160   -6.3330 O         1 <0>         0.0000
  44815 WAT       -30.9320  -77.4160   -6.0830 O         1 <0>         0.0000
  44816 WAT       -30.9320  -77.4160   -5.8330 O         1 <0>         0.0000
  44817 WAT       -30.9320  -77.4160   -5.5830 O         1 <0>         0.0000
  44818 WAT       -30.9320  -77.4160   -5.3330 O         1 <0>         0.0000
  44819 WAT       -30.9320  -77.4160   -5.0830 O         1 <0>         0.0000
  44820 WAT       -30.9320  -77.4160   -4.8330 O         1 <0>         0.0000
  44821 WAT       -30.9320  -77.4160   -4.5830 O         1 <0>         0.0000
  44822 WAT       -30.9320  -77.4160   -4.3330 O         1 <0>         0.0000
  44823 WAT       -30.9320  -77.4160   -4.0830 O         1 <0>         0.0000
  44824 WAT       -30.9320  -77.4160   -3.8330 O         1 <0>         0.0000
  44825 WAT       -30.9320  -77.4160   -3.5830 O         1 <0>         0.0000
  44826 WAT       -30.9320  -77.4160   -3.3330 O         1 <0>         0.0000
  44827 WAT       -30.9320  -77.4160   -3.0830 O         1 <0>         0.0000
  44828 WAT       -30.9320  -77.4160   -2.8330 O         1 <0>         0.0000
  44829 WAT       -30.9320  -77.4160   -2.5830 O         1 <0>         0.0000
  44830 WAT       -30.9320  -77.4160   -2.3330 O         1 <0>         0.0000
  44831 WAT       -30.9320  -77.4160   -2.0830 O         1 <0>         0.0000
  44832 WAT       -30.9320  -77.4160   -1.8330 O         1 <0>         0.0000
  44833 WAT       -30.9320  -77.4160   -1.5830 O         1 <0>         0.0000
  44834 WAT       -30.9320  -77.4160   -1.3330 O         1 <0>         0.0000
  44835 WAT       -30.9320  -77.4160   -1.0830 O         1 <0>         0.0000
  44836 WAT       -30.9320  -77.4160   -0.8330 O         1 <0>         0.0000
  44837 WAT       -30.9320  -77.4160   -0.5830 O         1 <0>         0.0000
  44838 WAT       -30.9320  -77.4160   -0.3330 O         1 <0>         0.0000
  44839 WAT       -30.9320  -77.4160   -0.0830 O         1 <0>         0.0000
  44840 WAT       -30.9320  -77.1660   -9.8330 O         1 <0>         0.0000
  44841 WAT       -30.9320  -77.1660   -9.5830 O         1 <0>         0.0000
  44842 WAT       -30.9320  -77.1660   -9.3330 O         1 <0>         0.0000
  44843 WAT       -30.9320  -77.1660   -9.0830 O         1 <0>         0.0000
  44844 WAT       -30.9320  -77.1660   -8.8330 O         1 <0>         0.0000
  44845 WAT       -30.9320  -77.1660   -8.5830 O         1 <0>         0.0000
  44846 WAT       -30.9320  -77.1660   -8.3330 O         1 <0>         0.0000
  44847 WAT       -30.9320  -77.1660   -8.0830 O         1 <0>         0.0000
  44848 WAT       -30.9320  -77.1660   -7.8330 O         1 <0>         0.0000
  44849 WAT       -30.9320  -77.1660   -7.5830 O         1 <0>         0.0000
  44850 WAT       -30.9320  -77.1660   -7.3330 O         1 <0>         0.0000
  44851 WAT       -30.9320  -77.1660   -7.0830 O         1 <0>         0.0000
  44852 WAT       -30.9320  -77.1660   -6.8330 O         1 <0>         0.0000
  44853 WAT       -30.9320  -77.1660   -6.5830 O         1 <0>         0.0000
  44854 WAT       -30.9320  -77.1660   -6.3330 O         1 <0>         0.0000
  44855 WAT       -30.9320  -77.1660   -6.0830 O         1 <0>         0.0000
  44856 WAT       -30.9320  -77.1660   -5.8330 O         1 <0>         0.0000
  44857 WAT       -30.9320  -77.1660   -5.5830 O         1 <0>         0.0000
  44858 WAT       -30.9320  -77.1660   -5.3330 O         1 <0>         0.0000
  44859 WAT       -30.9320  -77.1660   -5.0830 O         1 <0>         0.0000
  44860 WAT       -30.9320  -77.1660   -4.8330 O         1 <0>         0.0000
  44861 WAT       -30.9320  -77.1660   -4.5830 O         1 <0>         0.0000
  44862 WAT       -30.9320  -77.1660   -4.3330 O         1 <0>         0.0000
  44863 WAT       -30.9320  -77.1660   -4.0830 O         1 <0>         0.0000
  44864 WAT       -30.9320  -77.1660   -3.8330 O         1 <0>         0.0000
  44865 WAT       -30.9320  -77.1660   -3.5830 O         1 <0>         0.0000
  44866 WAT       -30.9320  -77.1660   -3.3330 O         1 <0>         0.0000
  44867 WAT       -30.9320  -77.1660   -3.0830 O         1 <0>         0.0000
  44868 WAT       -30.9320  -77.1660   -2.8330 O         1 <0>         0.0000
  44869 WAT       -30.9320  -77.1660   -2.5830 O         1 <0>         0.0000
  44870 WAT       -30.9320  -77.1660   -2.3330 O         1 <0>         0.0000
  44871 WAT       -30.9320  -77.1660   -2.0830 O         1 <0>         0.0000
  44872 WAT       -30.9320  -77.1660   -1.8330 O         1 <0>         0.0000
  44873 WAT       -30.9320  -77.1660   -1.5830 O         1 <0>         0.0000
  44874 WAT       -30.9320  -77.1660   -1.3330 O         1 <0>         0.0000
  44875 WAT       -30.9320  -77.1660   -1.0830 O         1 <0>         0.0000
  44876 WAT       -30.9320  -77.1660   -0.8330 O         1 <0>         0.0000
  44877 WAT       -30.9320  -77.1660   -0.5830 O         1 <0>         0.0000
  44878 WAT       -30.9320  -77.1660   -0.3330 O         1 <0>         0.0000
  44879 WAT       -30.9320  -77.1660   -0.0830 O         1 <0>         0.0000
  44880 WAT       -30.9320  -76.9160   -9.8330 O         1 <0>         0.0000
  44881 WAT       -30.9320  -76.9160   -9.5830 O         1 <0>         0.0000
  44882 WAT       -30.9320  -76.9160   -9.3330 O         1 <0>         0.0000
  44883 WAT       -30.9320  -76.9160   -9.0830 O         1 <0>         0.0000
  44884 WAT       -30.9320  -76.9160   -8.8330 O         1 <0>         0.0000
  44885 WAT       -30.9320  -76.9160   -8.5830 O         1 <0>         0.0000
  44886 WAT       -30.9320  -76.9160   -8.3330 O         1 <0>         0.0000
  44887 WAT       -30.9320  -76.9160   -8.0830 O         1 <0>         0.0000
  44888 WAT       -30.9320  -76.9160   -7.8330 O         1 <0>         0.0000
  44889 WAT       -30.9320  -76.9160   -7.5830 O         1 <0>         0.0000
  44890 WAT       -30.9320  -76.9160   -7.3330 O         1 <0>         0.0000
  44891 WAT       -30.9320  -76.9160   -7.0830 O         1 <0>         0.0000
  44892 WAT       -30.9320  -76.9160   -6.8330 O         1 <0>         0.0000
  44893 WAT       -30.9320  -76.9160   -6.5830 O         1 <0>         0.0000
  44894 WAT       -30.9320  -76.9160   -6.3330 O         1 <0>         0.0000
  44895 WAT       -30.9320  -76.9160   -6.0830 O         1 <0>         0.0000
  44896 WAT       -30.9320  -76.9160   -5.8330 O         1 <0>         0.0000
  44897 WAT       -30.9320  -76.9160   -5.5830 O         1 <0>         0.0000
  44898 WAT       -30.9320  -76.9160   -5.3330 O         1 <0>         0.0000
  44899 WAT       -30.9320  -76.9160   -5.0830 O         1 <0>         0.0000
  44900 WAT       -30.9320  -76.9160   -4.8330 O         1 <0>         0.0000
  44901 WAT       -30.9320  -76.9160   -4.5830 O         1 <0>         0.0000
  44902 WAT       -30.9320  -76.9160   -4.3330 O         1 <0>         0.0000
  44903 WAT       -30.9320  -76.9160   -4.0830 O         1 <0>         0.0000
  44904 WAT       -30.9320  -76.9160   -3.8330 O         1 <0>         0.0000
  44905 WAT       -30.9320  -76.9160   -3.5830 O         1 <0>         0.0000
  44906 WAT       -30.9320  -76.9160   -3.3330 O         1 <0>         0.0000
  44907 WAT       -30.9320  -76.9160   -3.0830 O         1 <0>         0.0000
  44908 WAT       -30.9320  -76.9160   -2.8330 O         1 <0>         0.0000
  44909 WAT       -30.9320  -76.9160   -2.5830 O         1 <0>         0.0000
  44910 WAT       -30.9320  -76.9160   -2.3330 O         1 <0>         0.0000
  44911 WAT       -30.9320  -76.9160   -2.0830 O         1 <0>         0.0000
  44912 WAT       -30.9320  -76.9160   -1.8330 O         1 <0>         0.0000
  44913 WAT       -30.9320  -76.9160   -1.5830 O         1 <0>         0.0000
  44914 WAT       -30.9320  -76.9160   -1.3330 O         1 <0>         0.0000
  44915 WAT       -30.9320  -76.9160   -1.0830 O         1 <0>         0.0000
  44916 WAT       -30.9320  -76.9160   -0.8330 O         1 <0>         0.0000
  44917 WAT       -30.9320  -76.9160   -0.5830 O         1 <0>         0.0000
  44918 WAT       -30.9320  -76.9160   -0.3330 O         1 <0>         0.0000
  44919 WAT       -30.9320  -76.9160   -0.0830 O         1 <0>         0.0000
  44920 WAT       -30.9320  -76.6660   -9.8330 O         1 <0>         0.0000
  44921 WAT       -30.9320  -76.6660   -9.5830 O         1 <0>         0.0000
  44922 WAT       -30.9320  -76.6660   -9.3330 O         1 <0>         0.0000
  44923 WAT       -30.9320  -76.6660   -9.0830 O         1 <0>         0.0000
  44924 WAT       -30.9320  -76.6660   -8.8330 O         1 <0>         0.0000
  44925 WAT       -30.9320  -76.6660   -8.5830 O         1 <0>         0.0000
  44926 WAT       -30.9320  -76.6660   -8.3330 O         1 <0>         0.0000
  44927 WAT       -30.9320  -76.6660   -8.0830 O         1 <0>         0.0000
  44928 WAT       -30.9320  -76.6660   -7.8330 O         1 <0>         0.0000
  44929 WAT       -30.9320  -76.6660   -7.5830 O         1 <0>         0.0000
  44930 WAT       -30.9320  -76.6660   -7.3330 O         1 <0>         0.0000
  44931 WAT       -30.9320  -76.6660   -7.0830 O         1 <0>         0.0000
  44932 WAT       -30.9320  -76.6660   -6.8330 O         1 <0>         0.0000
  44933 WAT       -30.9320  -76.6660   -6.5830 O         1 <0>         0.0000
  44934 WAT       -30.9320  -76.6660   -6.3330 O         1 <0>         0.0000
  44935 WAT       -30.9320  -76.6660   -6.0830 O         1 <0>         0.0000
  44936 WAT       -30.9320  -76.6660   -5.8330 O         1 <0>         0.0000
  44937 WAT       -30.9320  -76.6660   -5.5830 O         1 <0>         0.0000
  44938 WAT       -30.9320  -76.6660   -5.3330 O         1 <0>         0.0000
  44939 WAT       -30.9320  -76.6660   -5.0830 O         1 <0>         0.0000
  44940 WAT       -30.9320  -76.6660   -4.8330 O         1 <0>         0.0000
  44941 WAT       -30.9320  -76.6660   -4.5830 O         1 <0>         0.0000
  44942 WAT       -30.9320  -76.6660   -4.3330 O         1 <0>         0.0000
  44943 WAT       -30.9320  -76.6660   -4.0830 O         1 <0>         0.0000
  44944 WAT       -30.9320  -76.6660   -3.8330 O         1 <0>         0.0000
  44945 WAT       -30.9320  -76.6660   -3.5830 O         1 <0>         0.0000
  44946 WAT       -30.9320  -76.6660   -3.3330 O         1 <0>         0.0000
  44947 WAT       -30.9320  -76.6660   -3.0830 O         1 <0>         0.0000
  44948 WAT       -30.9320  -76.6660   -2.8330 O         1 <0>         0.0000
  44949 WAT       -30.9320  -76.6660   -2.5830 O         1 <0>         0.0000
  44950 WAT       -30.9320  -76.6660   -2.3330 O         1 <0>         0.0000
  44951 WAT       -30.9320  -76.6660   -2.0830 O         1 <0>         0.0000
  44952 WAT       -30.9320  -76.6660   -1.8330 O         1 <0>         0.0000
  44953 WAT       -30.9320  -76.6660   -1.5830 O         1 <0>         0.0000
  44954 WAT       -30.9320  -76.6660   -1.3330 O         1 <0>         0.0000
  44955 WAT       -30.9320  -76.6660   -1.0830 O         1 <0>         0.0000
  44956 WAT       -30.9320  -76.6660   -0.8330 O         1 <0>         0.0000
  44957 WAT       -30.9320  -76.6660   -0.5830 O         1 <0>         0.0000
  44958 WAT       -30.9320  -76.6660   -0.3330 O         1 <0>         0.0000
  44959 WAT       -30.9320  -76.6660   -0.0830 O         1 <0>         0.0000
  44960 WAT       -30.9320  -76.4160   -9.8330 O         1 <0>         0.0000
  44961 WAT       -30.9320  -76.4160   -9.5830 O         1 <0>         0.0000
  44962 WAT       -30.9320  -76.4160   -9.3330 O         1 <0>         0.0000
  44963 WAT       -30.9320  -76.4160   -9.0830 O         1 <0>         0.0000
  44964 WAT       -30.9320  -76.4160   -8.8330 O         1 <0>         0.0000
  44965 WAT       -30.9320  -76.4160   -8.5830 O         1 <0>         0.0000
  44966 WAT       -30.9320  -76.4160   -8.3330 O         1 <0>         0.0000
  44967 WAT       -30.9320  -76.4160   -8.0830 O         1 <0>         0.0000
  44968 WAT       -30.9320  -76.4160   -7.8330 O         1 <0>         0.0000
  44969 WAT       -30.9320  -76.4160   -7.5830 O         1 <0>         0.0000
  44970 WAT       -30.9320  -76.4160   -7.3330 O         1 <0>         0.0000
  44971 WAT       -30.9320  -76.4160   -7.0830 O         1 <0>         0.0000
  44972 WAT       -30.9320  -76.4160   -6.8330 O         1 <0>         0.0000
  44973 WAT       -30.9320  -76.4160   -6.5830 O         1 <0>         0.0000
  44974 WAT       -30.9320  -76.4160   -6.3330 O         1 <0>         0.0000
  44975 WAT       -30.9320  -76.4160   -6.0830 O         1 <0>         0.0000
  44976 WAT       -30.9320  -76.4160   -5.8330 O         1 <0>         0.0000
  44977 WAT       -30.9320  -76.4160   -5.5830 O         1 <0>         0.0000
  44978 WAT       -30.9320  -76.4160   -5.3330 O         1 <0>         0.0000
  44979 WAT       -30.9320  -76.4160   -5.0830 O         1 <0>         0.0000
  44980 WAT       -30.9320  -76.4160   -4.8330 O         1 <0>         0.0000
  44981 WAT       -30.9320  -76.4160   -4.5830 O         1 <0>         0.0000
  44982 WAT       -30.9320  -76.4160   -4.3330 O         1 <0>         0.0000
  44983 WAT       -30.9320  -76.4160   -4.0830 O         1 <0>         0.0000
  44984 WAT       -30.9320  -76.4160   -3.8330 O         1 <0>         0.0000
  44985 WAT       -30.9320  -76.4160   -3.5830 O         1 <0>         0.0000
  44986 WAT       -30.9320  -76.4160   -3.3330 O         1 <0>         0.0000
  44987 WAT       -30.9320  -76.4160   -3.0830 O         1 <0>         0.0000
  44988 WAT       -30.9320  -76.4160   -2.8330 O         1 <0>         0.0000
  44989 WAT       -30.9320  -76.4160   -2.5830 O         1 <0>         0.0000
  44990 WAT       -30.9320  -76.4160   -2.3330 O         1 <0>         0.0000
  44991 WAT       -30.9320  -76.4160   -2.0830 O         1 <0>         0.0000
  44992 WAT       -30.9320  -76.4160   -1.8330 O         1 <0>         0.0000
  44993 WAT       -30.9320  -76.4160   -1.5830 O         1 <0>         0.0000
  44994 WAT       -30.9320  -76.4160   -1.3330 O         1 <0>         0.0000
  44995 WAT       -30.9320  -76.4160   -1.0830 O         1 <0>         0.0000
  44996 WAT       -30.9320  -76.4160   -0.8330 O         1 <0>         0.0000
  44997 WAT       -30.9320  -76.4160   -0.5830 O         1 <0>         0.0000
  44998 WAT       -30.9320  -76.4160   -0.3330 O         1 <0>         0.0000
  44999 WAT       -30.9320  -76.4160   -0.0830 O         1 <0>         0.0000
  45000 WAT       -30.9320  -76.1660   -9.8330 O         1 <0>         0.0000
  45001 WAT       -30.9320  -76.1660   -9.5830 O         1 <0>         0.0000
  45002 WAT       -30.9320  -76.1660   -9.3330 O         1 <0>         0.0000
  45003 WAT       -30.9320  -76.1660   -9.0830 O         1 <0>         0.0000
  45004 WAT       -30.9320  -76.1660   -8.8330 O         1 <0>         0.0000
  45005 WAT       -30.9320  -76.1660   -8.5830 O         1 <0>         0.0000
  45006 WAT       -30.9320  -76.1660   -8.3330 O         1 <0>         0.0000
  45007 WAT       -30.9320  -76.1660   -8.0830 O         1 <0>         0.0000
  45008 WAT       -30.9320  -76.1660   -7.8330 O         1 <0>         0.0000
  45009 WAT       -30.9320  -76.1660   -7.5830 O         1 <0>         0.0000
  45010 WAT       -30.9320  -76.1660   -7.3330 O         1 <0>         0.0000
  45011 WAT       -30.9320  -76.1660   -7.0830 O         1 <0>         0.0000
  45012 WAT       -30.9320  -76.1660   -6.8330 O         1 <0>         0.0000
  45013 WAT       -30.9320  -76.1660   -6.5830 O         1 <0>         0.0000
  45014 WAT       -30.9320  -76.1660   -6.3330 O         1 <0>         0.0000
  45015 WAT       -30.9320  -76.1660   -6.0830 O         1 <0>         0.0000
  45016 WAT       -30.9320  -76.1660   -5.8330 O         1 <0>         0.0000
  45017 WAT       -30.9320  -76.1660   -5.5830 O         1 <0>         0.0000
  45018 WAT       -30.9320  -76.1660   -5.3330 O         1 <0>         0.0000
  45019 WAT       -30.9320  -76.1660   -5.0830 O         1 <0>         0.0000
  45020 WAT       -30.9320  -76.1660   -4.8330 O         1 <0>         0.0000
  45021 WAT       -30.9320  -76.1660   -4.5830 O         1 <0>         0.0000
  45022 WAT       -30.9320  -76.1660   -4.3330 O         1 <0>         0.0000
  45023 WAT       -30.9320  -76.1660   -4.0830 O         1 <0>         0.0000
  45024 WAT       -30.9320  -76.1660   -3.8330 O         1 <0>         0.0000
  45025 WAT       -30.9320  -76.1660   -3.5830 O         1 <0>         0.0000
  45026 WAT       -30.9320  -76.1660   -3.3330 O         1 <0>         0.0000
  45027 WAT       -30.9320  -76.1660   -3.0830 O         1 <0>         0.0000
  45028 WAT       -30.9320  -76.1660   -2.8330 O         1 <0>         0.0000
  45029 WAT       -30.9320  -76.1660   -2.5830 O         1 <0>         0.0000
  45030 WAT       -30.9320  -76.1660   -2.3330 O         1 <0>         0.0000
  45031 WAT       -30.9320  -76.1660   -2.0830 O         1 <0>         0.0000
  45032 WAT       -30.9320  -76.1660   -1.8330 O         1 <0>         0.0000
  45033 WAT       -30.9320  -76.1660   -1.5830 O         1 <0>         0.0000
  45034 WAT       -30.9320  -76.1660   -1.3330 O         1 <0>         0.0000
  45035 WAT       -30.9320  -76.1660   -1.0830 O         1 <0>         0.0000
  45036 WAT       -30.9320  -76.1660   -0.8330 O         1 <0>         0.0000
  45037 WAT       -30.9320  -76.1660   -0.5830 O         1 <0>         0.0000
  45038 WAT       -30.9320  -76.1660   -0.3330 O         1 <0>         0.0000
  45039 WAT       -30.9320  -76.1660   -0.0830 O         1 <0>         0.0000
  45040 WAT       -30.9320  -75.9160   -9.8330 O         1 <0>         0.0000
  45041 WAT       -30.9320  -75.9160   -9.5830 O         1 <0>         0.0000
  45042 WAT       -30.9320  -75.9160   -9.3330 O         1 <0>         0.0000
  45043 WAT       -30.9320  -75.9160   -9.0830 O         1 <0>         0.0000
  45044 WAT       -30.9320  -75.9160   -8.8330 O         1 <0>         0.0000
  45045 WAT       -30.9320  -75.9160   -8.5830 O         1 <0>         0.0000
  45046 WAT       -30.9320  -75.9160   -8.3330 O         1 <0>         0.0000
  45047 WAT       -30.9320  -75.9160   -8.0830 O         1 <0>         0.0000
  45048 WAT       -30.9320  -75.9160   -7.8330 O         1 <0>         0.0000
  45049 WAT       -30.9320  -75.9160   -7.5830 O         1 <0>         0.0000
  45050 WAT       -30.9320  -75.9160   -7.3330 O         1 <0>         0.0000
  45051 WAT       -30.9320  -75.9160   -7.0830 O         1 <0>         0.0000
  45052 WAT       -30.9320  -75.9160   -6.8330 O         1 <0>         0.0000
  45053 WAT       -30.9320  -75.9160   -6.5830 O         1 <0>         0.0000
  45054 WAT       -30.9320  -75.9160   -6.3330 O         1 <0>         0.0000
  45055 WAT       -30.9320  -75.9160   -6.0830 O         1 <0>         0.0000
  45056 WAT       -30.9320  -75.9160   -5.8330 O         1 <0>         0.0000
  45057 WAT       -30.9320  -75.9160   -5.5830 O         1 <0>         0.0000
  45058 WAT       -30.9320  -75.9160   -5.3330 O         1 <0>         0.0000
  45059 WAT       -30.9320  -75.9160   -5.0830 O         1 <0>         0.0000
  45060 WAT       -30.9320  -75.9160   -4.8330 O         1 <0>         0.0000
  45061 WAT       -30.9320  -75.9160   -4.5830 O         1 <0>         0.0000
  45062 WAT       -30.9320  -75.9160   -4.3330 O         1 <0>         0.0000
  45063 WAT       -30.9320  -75.9160   -4.0830 O         1 <0>         0.0000
  45064 WAT       -30.9320  -75.9160   -3.8330 O         1 <0>         0.0000
  45065 WAT       -30.9320  -75.9160   -3.5830 O         1 <0>         0.0000
  45066 WAT       -30.9320  -75.9160   -3.3330 O         1 <0>         0.0000
  45067 WAT       -30.9320  -75.9160   -3.0830 O         1 <0>         0.0000
  45068 WAT       -30.9320  -75.9160   -2.8330 O         1 <0>         0.0000
  45069 WAT       -30.9320  -75.9160   -2.5830 O         1 <0>         0.0000
  45070 WAT       -30.9320  -75.9160   -2.3330 O         1 <0>         0.0000
  45071 WAT       -30.9320  -75.9160   -2.0830 O         1 <0>         0.0000
  45072 WAT       -30.9320  -75.9160   -1.8330 O         1 <0>         0.0000
  45073 WAT       -30.9320  -75.9160   -1.5830 O         1 <0>         0.0000
  45074 WAT       -30.9320  -75.9160   -1.3330 O         1 <0>         0.0000
  45075 WAT       -30.9320  -75.9160   -1.0830 O         1 <0>         0.0000
  45076 WAT       -30.9320  -75.9160   -0.8330 O         1 <0>         0.0000
  45077 WAT       -30.9320  -75.9160   -0.5830 O         1 <0>         0.0000
  45078 WAT       -30.9320  -75.9160   -0.3330 O         1 <0>         0.0000
  45079 WAT       -30.9320  -75.9160   -0.0830 O         1 <0>         0.0000
  45080 WAT       -30.9320  -75.6660   -9.8330 O         1 <0>         0.0000
  45081 WAT       -30.9320  -75.6660   -9.5830 O         1 <0>         0.0000
  45082 WAT       -30.9320  -75.6660   -9.3330 O         1 <0>         0.0000
  45083 WAT       -30.9320  -75.6660   -9.0830 O         1 <0>         0.0000
  45084 WAT       -30.9320  -75.6660   -8.8330 O         1 <0>         0.0000
  45085 WAT       -30.9320  -75.6660   -8.5830 O         1 <0>         0.0000
  45086 WAT       -30.9320  -75.6660   -8.3330 O         1 <0>         0.0000
  45087 WAT       -30.9320  -75.6660   -8.0830 O         1 <0>         0.0000
  45088 WAT       -30.9320  -75.6660   -7.8330 O         1 <0>         0.0000
  45089 WAT       -30.9320  -75.6660   -7.5830 O         1 <0>         0.0000
  45090 WAT       -30.9320  -75.6660   -7.3330 O         1 <0>         0.0000
  45091 WAT       -30.9320  -75.6660   -7.0830 O         1 <0>         0.0000
  45092 WAT       -30.9320  -75.6660   -6.8330 O         1 <0>         0.0000
  45093 WAT       -30.9320  -75.6660   -6.5830 O         1 <0>         0.0000
  45094 WAT       -30.9320  -75.6660   -6.3330 O         1 <0>         0.0000
  45095 WAT       -30.9320  -75.6660   -6.0830 O         1 <0>         0.0000
  45096 WAT       -30.9320  -75.6660   -5.8330 O         1 <0>         0.0000
  45097 WAT       -30.9320  -75.6660   -5.5830 O         1 <0>         0.0000
  45098 WAT       -30.9320  -75.6660   -5.3330 O         1 <0>         0.0000
  45099 WAT       -30.9320  -75.6660   -5.0830 O         1 <0>         0.0000
  45100 WAT       -30.9320  -75.6660   -4.8330 O         1 <0>         0.0000
  45101 WAT       -30.9320  -75.6660   -4.5830 O         1 <0>         0.0000
  45102 WAT       -30.9320  -75.6660   -4.3330 O         1 <0>         0.0000
  45103 WAT       -30.9320  -75.6660   -4.0830 O         1 <0>         0.0000
  45104 WAT       -30.9320  -75.6660   -3.8330 O         1 <0>         0.0000
  45105 WAT       -30.9320  -75.6660   -3.5830 O         1 <0>         0.0000
  45106 WAT       -30.9320  -75.6660   -3.3330 O         1 <0>         0.0000
  45107 WAT       -30.9320  -75.6660   -3.0830 O         1 <0>         0.0000
  45108 WAT       -30.9320  -75.6660   -2.8330 O         1 <0>         0.0000
  45109 WAT       -30.9320  -75.6660   -2.5830 O         1 <0>         0.0000
  45110 WAT       -30.9320  -75.6660   -2.3330 O         1 <0>         0.0000
  45111 WAT       -30.9320  -75.6660   -2.0830 O         1 <0>         0.0000
  45112 WAT       -30.9320  -75.6660   -1.8330 O         1 <0>         0.0000
  45113 WAT       -30.9320  -75.6660   -1.5830 O         1 <0>         0.0000
  45114 WAT       -30.9320  -75.6660   -1.3330 O         1 <0>         0.0000
  45115 WAT       -30.9320  -75.6660   -1.0830 O         1 <0>         0.0000
  45116 WAT       -30.9320  -75.6660   -0.8330 O         1 <0>         0.0000
  45117 WAT       -30.9320  -75.6660   -0.5830 O         1 <0>         0.0000
  45118 WAT       -30.9320  -75.6660   -0.3330 O         1 <0>         0.0000
  45119 WAT       -30.9320  -75.6660   -0.0830 O         1 <0>         0.0000
  45120 WAT       -30.9320  -75.4160   -9.8330 O         1 <0>         0.0000
  45121 WAT       -30.9320  -75.4160   -9.5830 O         1 <0>         0.0000
  45122 WAT       -30.9320  -75.4160   -9.3330 O         1 <0>         0.0000
  45123 WAT       -30.9320  -75.4160   -9.0830 O         1 <0>         0.0000
  45124 WAT       -30.9320  -75.4160   -8.8330 O         1 <0>         0.0000
  45125 WAT       -30.9320  -75.4160   -8.5830 O         1 <0>         0.0000
  45126 WAT       -30.9320  -75.4160   -8.3330 O         1 <0>         0.0000
  45127 WAT       -30.9320  -75.4160   -8.0830 O         1 <0>         0.0000
  45128 WAT       -30.9320  -75.4160   -7.8330 O         1 <0>         0.0000
  45129 WAT       -30.9320  -75.4160   -7.5830 O         1 <0>         0.0000
  45130 WAT       -30.9320  -75.4160   -7.3330 O         1 <0>         0.0000
  45131 WAT       -30.9320  -75.4160   -7.0830 O         1 <0>         0.0000
  45132 WAT       -30.9320  -75.4160   -6.8330 O         1 <0>         0.0000
  45133 WAT       -30.9320  -75.4160   -6.5830 O         1 <0>         0.0000
  45134 WAT       -30.9320  -75.4160   -6.3330 O         1 <0>         0.0000
  45135 WAT       -30.9320  -75.4160   -6.0830 O         1 <0>         0.0000
  45136 WAT       -30.9320  -75.4160   -5.8330 O         1 <0>         0.0000
  45137 WAT       -30.9320  -75.4160   -5.5830 O         1 <0>         0.0000
  45138 WAT       -30.9320  -75.4160   -5.3330 O         1 <0>         0.0000
  45139 WAT       -30.9320  -75.4160   -5.0830 O         1 <0>         0.0000
  45140 WAT       -30.9320  -75.4160   -4.8330 O         1 <0>         0.0000
  45141 WAT       -30.9320  -75.4160   -4.5830 O         1 <0>         0.0000
  45142 WAT       -30.9320  -75.4160   -4.3330 O         1 <0>         0.0000
  45143 WAT       -30.9320  -75.4160   -4.0830 O         1 <0>         0.0000
  45144 WAT       -30.9320  -75.4160   -3.8330 O         1 <0>         0.0000
  45145 WAT       -30.9320  -75.4160   -3.5830 O         1 <0>         0.0000
  45146 WAT       -30.9320  -75.4160   -3.3330 O         1 <0>         0.0000
  45147 WAT       -30.9320  -75.4160   -3.0830 O         1 <0>         0.0000
  45148 WAT       -30.9320  -75.4160   -2.8330 O         1 <0>         0.0000
  45149 WAT       -30.9320  -75.4160   -2.5830 O         1 <0>         0.0000
  45150 WAT       -30.9320  -75.4160   -2.3330 O         1 <0>         0.0000
  45151 WAT       -30.9320  -75.4160   -2.0830 O         1 <0>         0.0000
  45152 WAT       -30.9320  -75.4160   -1.8330 O         1 <0>         0.0000
  45153 WAT       -30.9320  -75.4160   -1.5830 O         1 <0>         0.0000
  45154 WAT       -30.9320  -75.4160   -1.3330 O         1 <0>         0.0000
  45155 WAT       -30.9320  -75.4160   -1.0830 O         1 <0>         0.0000
  45156 WAT       -30.9320  -75.4160   -0.8330 O         1 <0>         0.0000
  45157 WAT       -30.9320  -75.4160   -0.5830 O         1 <0>         0.0000
  45158 WAT       -30.9320  -75.4160   -0.3330 O         1 <0>         0.0000
  45159 WAT       -30.9320  -75.4160   -0.0830 O         1 <0>         0.0000
  45160 WAT       -30.9320  -75.1660   -9.8330 O         1 <0>         0.0000
  45161 WAT       -30.9320  -75.1660   -9.5830 O         1 <0>         0.0000
  45162 WAT       -30.9320  -75.1660   -9.3330 O         1 <0>         0.0000
  45163 WAT       -30.9320  -75.1660   -9.0830 O         1 <0>         0.0000
  45164 WAT       -30.9320  -75.1660   -8.8330 O         1 <0>         0.0000
  45165 WAT       -30.9320  -75.1660   -8.5830 O         1 <0>         0.0000
  45166 WAT       -30.9320  -75.1660   -8.3330 O         1 <0>         0.0000
  45167 WAT       -30.9320  -75.1660   -8.0830 O         1 <0>         0.0000
  45168 WAT       -30.9320  -75.1660   -7.8330 O         1 <0>         0.0000
  45169 WAT       -30.9320  -75.1660   -7.5830 O         1 <0>         0.0000
  45170 WAT       -30.9320  -75.1660   -7.3330 O         1 <0>         0.0000
  45171 WAT       -30.9320  -75.1660   -7.0830 O         1 <0>         0.0000
  45172 WAT       -30.9320  -75.1660   -6.8330 O         1 <0>         0.0000
  45173 WAT       -30.9320  -75.1660   -6.5830 O         1 <0>         0.0000
  45174 WAT       -30.9320  -75.1660   -6.3330 O         1 <0>         0.0000
  45175 WAT       -30.9320  -75.1660   -6.0830 O         1 <0>         0.0000
  45176 WAT       -30.9320  -75.1660   -5.8330 O         1 <0>         0.0000
  45177 WAT       -30.9320  -75.1660   -5.5830 O         1 <0>         0.0000
  45178 WAT       -30.9320  -75.1660   -5.3330 O         1 <0>         0.0000
  45179 WAT       -30.9320  -75.1660   -5.0830 O         1 <0>         0.0000
  45180 WAT       -30.9320  -75.1660   -4.8330 O         1 <0>         0.0000
  45181 WAT       -30.9320  -75.1660   -4.5830 O         1 <0>         0.0000
  45182 WAT       -30.9320  -75.1660   -4.3330 O         1 <0>         0.0000
  45183 WAT       -30.9320  -75.1660   -4.0830 O         1 <0>         0.0000
  45184 WAT       -30.9320  -75.1660   -3.8330 O         1 <0>         0.0000
  45185 WAT       -30.9320  -75.1660   -3.5830 O         1 <0>         0.0000
  45186 WAT       -30.9320  -75.1660   -3.3330 O         1 <0>         0.0000
  45187 WAT       -30.9320  -75.1660   -3.0830 O         1 <0>         0.0000
  45188 WAT       -30.9320  -75.1660   -2.8330 O         1 <0>         0.0000
  45189 WAT       -30.9320  -75.1660   -2.5830 O         1 <0>         0.0000
  45190 WAT       -30.9320  -75.1660   -2.3330 O         1 <0>         0.0000
  45191 WAT       -30.9320  -75.1660   -2.0830 O         1 <0>         0.0000
  45192 WAT       -30.9320  -75.1660   -1.8330 O         1 <0>         0.0000
  45193 WAT       -30.9320  -75.1660   -1.5830 O         1 <0>         0.0000
  45194 WAT       -30.9320  -75.1660   -1.3330 O         1 <0>         0.0000
  45195 WAT       -30.9320  -75.1660   -1.0830 O         1 <0>         0.0000
  45196 WAT       -30.9320  -75.1660   -0.8330 O         1 <0>         0.0000
  45197 WAT       -30.9320  -75.1660   -0.5830 O         1 <0>         0.0000
  45198 WAT       -30.9320  -75.1660   -0.3330 O         1 <0>         0.0000
  45199 WAT       -30.9320  -75.1660   -0.0830 O         1 <0>         0.0000
  45200 WAT       -30.9320  -74.9160   -9.8330 O         1 <0>         0.0000
  45201 WAT       -30.9320  -74.9160   -9.5830 O         1 <0>         0.0000
  45202 WAT       -30.9320  -74.9160   -9.3330 O         1 <0>         0.0000
  45203 WAT       -30.9320  -74.9160   -9.0830 O         1 <0>         0.0000
  45204 WAT       -30.9320  -74.9160   -8.8330 O         1 <0>         0.0000
  45205 WAT       -30.9320  -74.9160   -8.5830 O         1 <0>         0.0000
  45206 WAT       -30.9320  -74.9160   -8.3330 O         1 <0>         0.0000
  45207 WAT       -30.9320  -74.9160   -8.0830 O         1 <0>         0.0000
  45208 WAT       -30.9320  -74.9160   -7.8330 O         1 <0>         0.0000
  45209 WAT       -30.9320  -74.9160   -7.5830 O         1 <0>         0.0000
  45210 WAT       -30.9320  -74.9160   -7.3330 O         1 <0>         0.0000
  45211 WAT       -30.9320  -74.9160   -7.0830 O         1 <0>         0.0000
  45212 WAT       -30.9320  -74.9160   -6.8330 O         1 <0>         0.0000
  45213 WAT       -30.9320  -74.9160   -6.5830 O         1 <0>         0.0000
  45214 WAT       -30.9320  -74.9160   -6.3330 O         1 <0>         0.0000
  45215 WAT       -30.9320  -74.9160   -6.0830 O         1 <0>         0.0000
  45216 WAT       -30.9320  -74.9160   -5.8330 O         1 <0>         0.0000
  45217 WAT       -30.9320  -74.9160   -5.5830 O         1 <0>         0.0000
  45218 WAT       -30.9320  -74.9160   -5.3330 O         1 <0>         0.0000
  45219 WAT       -30.9320  -74.9160   -5.0830 O         1 <0>         0.0000
  45220 WAT       -30.9320  -74.9160   -4.8330 O         1 <0>         0.0000
  45221 WAT       -30.9320  -74.9160   -4.5830 O         1 <0>         0.0000
  45222 WAT       -30.9320  -74.9160   -4.3330 O         1 <0>         0.0000
  45223 WAT       -30.9320  -74.9160   -4.0830 O         1 <0>         0.0000
  45224 WAT       -30.9320  -74.9160   -3.8330 O         1 <0>         0.0000
  45225 WAT       -30.9320  -74.9160   -3.5830 O         1 <0>         0.0000
  45226 WAT       -30.9320  -74.9160   -3.3330 O         1 <0>         0.0000
  45227 WAT       -30.9320  -74.9160   -3.0830 O         1 <0>         0.0000
  45228 WAT       -30.9320  -74.9160   -2.8330 O         1 <0>         0.0000
  45229 WAT       -30.9320  -74.9160   -2.5830 O         1 <0>         0.0000
  45230 WAT       -30.9320  -74.9160   -2.3330 O         1 <0>         0.0000
  45231 WAT       -30.9320  -74.9160   -2.0830 O         1 <0>         0.0000
  45232 WAT       -30.9320  -74.9160   -1.8330 O         1 <0>         0.0000
  45233 WAT       -30.9320  -74.9160   -1.5830 O         1 <0>         0.0000
  45234 WAT       -30.9320  -74.9160   -1.3330 O         1 <0>         0.0000
  45235 WAT       -30.9320  -74.9160   -1.0830 O         1 <0>         0.0000
  45236 WAT       -30.9320  -74.9160   -0.8330 O         1 <0>         0.0000
  45237 WAT       -30.9320  -74.9160   -0.5830 O         1 <0>         0.0000
  45238 WAT       -30.9320  -74.9160   -0.3330 O         1 <0>         0.0000
  45239 WAT       -30.9320  -74.9160   -0.0830 O         1 <0>         0.0000
  45240 WAT       -30.9320  -74.6660   -9.8330 O         1 <0>         0.0000
  45241 WAT       -30.9320  -74.6660   -9.5830 O         1 <0>         0.0000
  45242 WAT       -30.9320  -74.6660   -9.3330 O         1 <0>         0.0000
  45243 WAT       -30.9320  -74.6660   -9.0830 O         1 <0>         0.0000
  45244 WAT       -30.9320  -74.6660   -8.8330 O         1 <0>         0.0000
  45245 WAT       -30.9320  -74.6660   -8.5830 O         1 <0>         0.0000
  45246 WAT       -30.9320  -74.6660   -8.3330 O         1 <0>         0.0000
  45247 WAT       -30.9320  -74.6660   -8.0830 O         1 <0>         0.0000
  45248 WAT       -30.9320  -74.6660   -7.8330 O         1 <0>         0.0000
  45249 WAT       -30.9320  -74.6660   -7.5830 O         1 <0>         0.0000
  45250 WAT       -30.9320  -74.6660   -7.3330 O         1 <0>         0.0000
  45251 WAT       -30.9320  -74.6660   -7.0830 O         1 <0>         0.0000
  45252 WAT       -30.9320  -74.6660   -6.8330 O         1 <0>         0.0000
  45253 WAT       -30.9320  -74.6660   -6.5830 O         1 <0>         0.0000
  45254 WAT       -30.9320  -74.6660   -6.3330 O         1 <0>         0.0000
  45255 WAT       -30.9320  -74.6660   -6.0830 O         1 <0>         0.0000
  45256 WAT       -30.9320  -74.6660   -5.8330 O         1 <0>         0.0000
  45257 WAT       -30.9320  -74.6660   -5.5830 O         1 <0>         0.0000
  45258 WAT       -30.9320  -74.6660   -5.3330 O         1 <0>         0.0000
  45259 WAT       -30.9320  -74.6660   -5.0830 O         1 <0>         0.0000
  45260 WAT       -30.9320  -74.6660   -4.8330 O         1 <0>         0.0000
  45261 WAT       -30.9320  -74.6660   -4.5830 O         1 <0>         0.0000
  45262 WAT       -30.9320  -74.6660   -4.3330 O         1 <0>         0.0000
  45263 WAT       -30.9320  -74.6660   -4.0830 O         1 <0>         0.0000
  45264 WAT       -30.9320  -74.6660   -3.8330 O         1 <0>         0.0000
  45265 WAT       -30.9320  -74.6660   -3.5830 O         1 <0>         0.0000
  45266 WAT       -30.9320  -74.6660   -3.3330 O         1 <0>         0.0000
  45267 WAT       -30.9320  -74.6660   -3.0830 O         1 <0>         0.0000
  45268 WAT       -30.9320  -74.6660   -2.8330 O         1 <0>         0.0000
  45269 WAT       -30.9320  -74.6660   -2.5830 O         1 <0>         0.0000
  45270 WAT       -30.9320  -74.6660   -2.3330 O         1 <0>         0.0000
  45271 WAT       -30.9320  -74.6660   -2.0830 O         1 <0>         0.0000
  45272 WAT       -30.9320  -74.6660   -1.8330 O         1 <0>         0.0000
  45273 WAT       -30.9320  -74.6660   -1.5830 O         1 <0>         0.0000
  45274 WAT       -30.9320  -74.6660   -1.3330 O         1 <0>         0.0000
  45275 WAT       -30.9320  -74.6660   -1.0830 O         1 <0>         0.0000
  45276 WAT       -30.9320  -74.6660   -0.8330 O         1 <0>         0.0000
  45277 WAT       -30.9320  -74.6660   -0.5830 O         1 <0>         0.0000
  45278 WAT       -30.9320  -74.6660   -0.3330 O         1 <0>         0.0000
  45279 WAT       -30.9320  -74.6660   -0.0830 O         1 <0>         0.0000
  45280 WAT       -30.9320  -74.4160   -9.8330 O         1 <0>         0.0000
  45281 WAT       -30.9320  -74.4160   -9.5830 O         1 <0>         0.0000
  45282 WAT       -30.9320  -74.4160   -9.3330 O         1 <0>         0.0000
  45283 WAT       -30.9320  -74.4160   -9.0830 O         1 <0>         0.0000
  45284 WAT       -30.9320  -74.4160   -8.8330 O         1 <0>         0.0000
  45285 WAT       -30.9320  -74.4160   -8.5830 O         1 <0>         0.0000
  45286 WAT       -30.9320  -74.4160   -8.3330 O         1 <0>         0.0000
  45287 WAT       -30.9320  -74.4160   -8.0830 O         1 <0>         0.0000
  45288 WAT       -30.9320  -74.4160   -7.8330 O         1 <0>         0.0000
  45289 WAT       -30.9320  -74.4160   -7.5830 O         1 <0>         0.0000
  45290 WAT       -30.9320  -74.4160   -7.3330 O         1 <0>         0.0000
  45291 WAT       -30.9320  -74.4160   -7.0830 O         1 <0>         0.0000
  45292 WAT       -30.9320  -74.4160   -6.8330 O         1 <0>         0.0000
  45293 WAT       -30.9320  -74.4160   -6.5830 O         1 <0>         0.0000
  45294 WAT       -30.9320  -74.4160   -6.3330 O         1 <0>         0.0000
  45295 WAT       -30.9320  -74.4160   -6.0830 O         1 <0>         0.0000
  45296 WAT       -30.9320  -74.4160   -5.8330 O         1 <0>         0.0000
  45297 WAT       -30.9320  -74.4160   -5.5830 O         1 <0>         0.0000
  45298 WAT       -30.9320  -74.4160   -5.3330 O         1 <0>         0.0000
  45299 WAT       -30.9320  -74.4160   -5.0830 O         1 <0>         0.0000
  45300 WAT       -30.9320  -74.4160   -4.8330 O         1 <0>         0.0000
  45301 WAT       -30.9320  -74.4160   -4.5830 O         1 <0>         0.0000
  45302 WAT       -30.9320  -74.4160   -4.3330 O         1 <0>         0.0000
  45303 WAT       -30.9320  -74.4160   -4.0830 O         1 <0>         0.0000
  45304 WAT       -30.9320  -74.4160   -3.8330 O         1 <0>         0.0000
  45305 WAT       -30.9320  -74.4160   -3.5830 O         1 <0>         0.0000
  45306 WAT       -30.9320  -74.4160   -3.3330 O         1 <0>         0.0000
  45307 WAT       -30.9320  -74.4160   -3.0830 O         1 <0>         0.0000
  45308 WAT       -30.9320  -74.4160   -2.8330 O         1 <0>         0.0000
  45309 WAT       -30.9320  -74.4160   -2.5830 O         1 <0>         0.0000
  45310 WAT       -30.9320  -74.4160   -2.3330 O         1 <0>         0.0000
  45311 WAT       -30.9320  -74.4160   -2.0830 O         1 <0>         0.0000
  45312 WAT       -30.9320  -74.4160   -1.8330 O         1 <0>         0.0000
  45313 WAT       -30.9320  -74.4160   -1.5830 O         1 <0>         0.0000
  45314 WAT       -30.9320  -74.4160   -1.3330 O         1 <0>         0.0000
  45315 WAT       -30.9320  -74.4160   -1.0830 O         1 <0>         0.0000
  45316 WAT       -30.9320  -74.4160   -0.8330 O         1 <0>         0.0000
  45317 WAT       -30.9320  -74.4160   -0.5830 O         1 <0>         0.0000
  45318 WAT       -30.9320  -74.4160   -0.3330 O         1 <0>         0.0000
  45319 WAT       -30.9320  -74.4160   -0.0830 O         1 <0>         0.0000
  45320 WAT       -30.9320  -74.1660   -9.8330 O         1 <0>         0.0000
  45321 WAT       -30.9320  -74.1660   -9.5830 O         1 <0>         0.0000
  45322 WAT       -30.9320  -74.1660   -9.3330 O         1 <0>         0.0000
  45323 WAT       -30.9320  -74.1660   -9.0830 O         1 <0>         0.0000
  45324 WAT       -30.9320  -74.1660   -8.8330 O         1 <0>         0.0000
  45325 WAT       -30.9320  -74.1660   -8.5830 O         1 <0>         0.0000
  45326 WAT       -30.9320  -74.1660   -8.3330 O         1 <0>         0.0000
  45327 WAT       -30.9320  -74.1660   -8.0830 O         1 <0>         0.0000
  45328 WAT       -30.9320  -74.1660   -7.8330 O         1 <0>         0.0000
  45329 WAT       -30.9320  -74.1660   -7.5830 O         1 <0>         0.0000
  45330 WAT       -30.9320  -74.1660   -7.3330 O         1 <0>         0.0000
  45331 WAT       -30.9320  -74.1660   -7.0830 O         1 <0>         0.0000
  45332 WAT       -30.9320  -74.1660   -6.8330 O         1 <0>         0.0000
  45333 WAT       -30.9320  -74.1660   -6.5830 O         1 <0>         0.0000
  45334 WAT       -30.9320  -74.1660   -6.3330 O         1 <0>         0.0000
  45335 WAT       -30.9320  -74.1660   -6.0830 O         1 <0>         0.0000
  45336 WAT       -30.9320  -74.1660   -5.8330 O         1 <0>         0.0000
  45337 WAT       -30.9320  -74.1660   -5.5830 O         1 <0>         0.0000
  45338 WAT       -30.9320  -74.1660   -5.3330 O         1 <0>         0.0001
  45339 WAT       -30.9320  -74.1660   -5.0830 O         1 <0>         0.0002
  45340 WAT       -30.9320  -74.1660   -4.8330 O         1 <0>         0.0004
  45341 WAT       -30.9320  -74.1660   -4.5830 O         1 <0>         0.0004
  45342 WAT       -30.9320  -74.1660   -4.3330 O         1 <0>         0.0003
  45343 WAT       -30.9320  -74.1660   -4.0830 O         1 <0>         0.0001
  45344 WAT       -30.9320  -74.1660   -3.8330 O         1 <0>         0.0000
  45345 WAT       -30.9320  -74.1660   -3.5830 O         1 <0>         0.0000
  45346 WAT       -30.9320  -74.1660   -3.3330 O         1 <0>         0.0000
  45347 WAT       -30.9320  -74.1660   -3.0830 O         1 <0>         0.0000
  45348 WAT       -30.9320  -74.1660   -2.8330 O         1 <0>         0.0000
  45349 WAT       -30.9320  -74.1660   -2.5830 O         1 <0>         0.0000
  45350 WAT       -30.9320  -74.1660   -2.3330 O         1 <0>         0.0000
  45351 WAT       -30.9320  -74.1660   -2.0830 O         1 <0>         0.0000
  45352 WAT       -30.9320  -74.1660   -1.8330 O         1 <0>         0.0000
  45353 WAT       -30.9320  -74.1660   -1.5830 O         1 <0>         0.0000
  45354 WAT       -30.9320  -74.1660   -1.3330 O         1 <0>         0.0000
  45355 WAT       -30.9320  -74.1660   -1.0830 O         1 <0>         0.0000
  45356 WAT       -30.9320  -74.1660   -0.8330 O         1 <0>         0.0000
  45357 WAT       -30.9320  -74.1660   -0.5830 O         1 <0>         0.0000
  45358 WAT       -30.9320  -74.1660   -0.3330 O         1 <0>         0.0000
  45359 WAT       -30.9320  -74.1660   -0.0830 O         1 <0>         0.0000
  45360 WAT       -30.9320  -73.9160   -9.8330 O         1 <0>         0.0000
  45361 WAT       -30.9320  -73.9160   -9.5830 O         1 <0>         0.0000
  45362 WAT       -30.9320  -73.9160   -9.3330 O         1 <0>         0.0000
  45363 WAT       -30.9320  -73.9160   -9.0830 O         1 <0>         0.0000
  45364 WAT       -30.9320  -73.9160   -8.8330 O         1 <0>         0.0000
  45365 WAT       -30.9320  -73.9160   -8.5830 O         1 <0>         0.0000
  45366 WAT       -30.9320  -73.9160   -8.3330 O         1 <0>         0.0000
  45367 WAT       -30.9320  -73.9160   -8.0830 O         1 <0>         0.0000
  45368 WAT       -30.9320  -73.9160   -7.8330 O         1 <0>         0.0000
  45369 WAT       -30.9320  -73.9160   -7.5830 O         1 <0>         0.0000
  45370 WAT       -30.9320  -73.9160   -7.3330 O         1 <0>         0.0000
  45371 WAT       -30.9320  -73.9160   -7.0830 O         1 <0>         0.0000
  45372 WAT       -30.9320  -73.9160   -6.8330 O         1 <0>         0.0000
  45373 WAT       -30.9320  -73.9160   -6.5830 O         1 <0>         0.0000
  45374 WAT       -30.9320  -73.9160   -6.3330 O         1 <0>         0.0000
  45375 WAT       -30.9320  -73.9160   -6.0830 O         1 <0>         0.0000
  45376 WAT       -30.9320  -73.9160   -5.8330 O         1 <0>         0.0001
  45377 WAT       -30.9320  -73.9160   -5.5830 O         1 <0>         0.0002
  45378 WAT       -30.9320  -73.9160   -5.3330 O         1 <0>         0.0008
  45379 WAT       -30.9320  -73.9160   -5.0830 O         1 <0>         0.0019
  45380 WAT       -30.9320  -73.9160   -4.8330 O         1 <0>         0.0029
  45381 WAT       -30.9320  -73.9160   -4.5830 O         1 <0>         0.0032
  45382 WAT       -30.9320  -73.9160   -4.3330 O         1 <0>         0.0024
  45383 WAT       -30.9320  -73.9160   -4.0830 O         1 <0>         0.0012
  45384 WAT       -30.9320  -73.9160   -3.8330 O         1 <0>         0.0003
  45385 WAT       -30.9320  -73.9160   -3.5830 O         1 <0>         0.0000
  45386 WAT       -30.9320  -73.9160   -3.3330 O         1 <0>         0.0000
  45387 WAT       -30.9320  -73.9160   -3.0830 O         1 <0>         0.0000
  45388 WAT       -30.9320  -73.9160   -2.8330 O         1 <0>         0.0000
  45389 WAT       -30.9320  -73.9160   -2.5830 O         1 <0>         0.0000
  45390 WAT       -30.9320  -73.9160   -2.3330 O         1 <0>         0.0000
  45391 WAT       -30.9320  -73.9160   -2.0830 O         1 <0>         0.0000
  45392 WAT       -30.9320  -73.9160   -1.8330 O         1 <0>         0.0000
  45393 WAT       -30.9320  -73.9160   -1.5830 O         1 <0>         0.0000
  45394 WAT       -30.9320  -73.9160   -1.3330 O         1 <0>         0.0000
  45395 WAT       -30.9320  -73.9160   -1.0830 O         1 <0>         0.0000
  45396 WAT       -30.9320  -73.9160   -0.8330 O         1 <0>         0.0000
  45397 WAT       -30.9320  -73.9160   -0.5830 O         1 <0>         0.0000
  45398 WAT       -30.9320  -73.9160   -0.3330 O         1 <0>         0.0000
  45399 WAT       -30.9320  -73.9160   -0.0830 O         1 <0>         0.0000
  45400 WAT       -30.9320  -73.6660   -9.8330 O         1 <0>         0.0000
  45401 WAT       -30.9320  -73.6660   -9.5830 O         1 <0>         0.0000
  45402 WAT       -30.9320  -73.6660   -9.3330 O         1 <0>         0.0000
  45403 WAT       -30.9320  -73.6660   -9.0830 O         1 <0>         0.0000
  45404 WAT       -30.9320  -73.6660   -8.8330 O         1 <0>         0.0000
  45405 WAT       -30.9320  -73.6660   -8.5830 O         1 <0>         0.0000
  45406 WAT       -30.9320  -73.6660   -8.3330 O         1 <0>         0.0000
  45407 WAT       -30.9320  -73.6660   -8.0830 O         1 <0>         0.0000
  45408 WAT       -30.9320  -73.6660   -7.8330 O         1 <0>         0.0000
  45409 WAT       -30.9320  -73.6660   -7.5830 O         1 <0>         0.0000
  45410 WAT       -30.9320  -73.6660   -7.3330 O         1 <0>         0.0000
  45411 WAT       -30.9320  -73.6660   -7.0830 O         1 <0>         0.0000
  45412 WAT       -30.9320  -73.6660   -6.8330 O         1 <0>         0.0000
  45413 WAT       -30.9320  -73.6660   -6.5830 O         1 <0>         0.0000
  45414 WAT       -30.9320  -73.6660   -6.3330 O         1 <0>         0.0000
  45415 WAT       -30.9320  -73.6660   -6.0830 O         1 <0>         0.0001
  45416 WAT       -30.9320  -73.6660   -5.8330 O         1 <0>         0.0004
  45417 WAT       -30.9320  -73.6660   -5.5830 O         1 <0>         0.0018
  45418 WAT       -30.9320  -73.6660   -5.3330 O         1 <0>         0.0052
  45419 WAT       -30.9320  -73.6660   -5.0830 O         1 <0>         0.0108
  45420 WAT       -30.9320  -73.6660   -4.8330 O         1 <0>         0.0161
  45421 WAT       -30.9320  -73.6660   -4.5830 O         1 <0>         0.0172
  45422 WAT       -30.9320  -73.6660   -4.3330 O         1 <0>         0.0130
  45423 WAT       -30.9320  -73.6660   -4.0830 O         1 <0>         0.0068
  45424 WAT       -30.9320  -73.6660   -3.8330 O         1 <0>         0.0024
  45425 WAT       -30.9320  -73.6660   -3.5830 O         1 <0>         0.0005
  45426 WAT       -30.9320  -73.6660   -3.3330 O         1 <0>         0.0000
  45427 WAT       -30.9320  -73.6660   -3.0830 O         1 <0>         0.0000
  45428 WAT       -30.9320  -73.6660   -2.8330 O         1 <0>         0.0000
  45429 WAT       -30.9320  -73.6660   -2.5830 O         1 <0>         0.0000
  45430 WAT       -30.9320  -73.6660   -2.3330 O         1 <0>         0.0000
  45431 WAT       -30.9320  -73.6660   -2.0830 O         1 <0>         0.0000
  45432 WAT       -30.9320  -73.6660   -1.8330 O         1 <0>         0.0000
  45433 WAT       -30.9320  -73.6660   -1.5830 O         1 <0>         0.0000
  45434 WAT       -30.9320  -73.6660   -1.3330 O         1 <0>         0.0000
  45435 WAT       -30.9320  -73.6660   -1.0830 O         1 <0>         0.0000
  45436 WAT       -30.9320  -73.6660   -0.8330 O         1 <0>         0.0000
  45437 WAT       -30.9320  -73.6660   -0.5830 O         1 <0>         0.0000
  45438 WAT       -30.9320  -73.6660   -0.3330 O         1 <0>         0.0000
  45439 WAT       -30.9320  -73.6660   -0.0830 O         1 <0>         0.0000
  45440 WAT       -30.9320  -73.4160   -9.8330 O         1 <0>         0.0000
  45441 WAT       -30.9320  -73.4160   -9.5830 O         1 <0>         0.0000
  45442 WAT       -30.9320  -73.4160   -9.3330 O         1 <0>         0.0000
  45443 WAT       -30.9320  -73.4160   -9.0830 O         1 <0>         0.0000
  45444 WAT       -30.9320  -73.4160   -8.8330 O         1 <0>         0.0000
  45445 WAT       -30.9320  -73.4160   -8.5830 O         1 <0>         0.0000
  45446 WAT       -30.9320  -73.4160   -8.3330 O         1 <0>         0.0000
  45447 WAT       -30.9320  -73.4160   -8.0830 O         1 <0>         0.0000
  45448 WAT       -30.9320  -73.4160   -7.8330 O         1 <0>         0.0000
  45449 WAT       -30.9320  -73.4160   -7.5830 O         1 <0>         0.0000
  45450 WAT       -30.9320  -73.4160   -7.3330 O         1 <0>         0.0000
  45451 WAT       -30.9320  -73.4160   -7.0830 O         1 <0>         0.0000
  45452 WAT       -30.9320  -73.4160   -6.8330 O         1 <0>         0.0000
  45453 WAT       -30.9320  -73.4160   -6.5830 O         1 <0>         0.0000
  45454 WAT       -30.9320  -73.4160   -6.3330 O         1 <0>         0.0001
  45455 WAT       -30.9320  -73.4160   -6.0830 O         1 <0>         0.0005
  45456 WAT       -30.9320  -73.4160   -5.8330 O         1 <0>         0.0023
  45457 WAT       -30.9320  -73.4160   -5.5830 O         1 <0>         0.0084
  45458 WAT       -30.9320  -73.4160   -5.3330 O         1 <0>         0.0224
  45459 WAT       -30.9320  -73.4160   -5.0830 O         1 <0>         0.0430
  45460 WAT       -30.9320  -73.4160   -4.8330 O         1 <0>         0.0604
  45461 WAT       -30.9320  -73.4160   -4.5830 O         1 <0>         0.0620
  45462 WAT       -30.9320  -73.4160   -4.3330 O         1 <0>         0.0465
  45463 WAT       -30.9320  -73.4160   -4.0830 O         1 <0>         0.0250
  45464 WAT       -30.9320  -73.4160   -3.8330 O         1 <0>         0.0094
  45465 WAT       -30.9320  -73.4160   -3.5830 O         1 <0>         0.0023
  45466 WAT       -30.9320  -73.4160   -3.3330 O         1 <0>         0.0003
  45467 WAT       -30.9320  -73.4160   -3.0830 O         1 <0>         0.0000
  45468 WAT       -30.9320  -73.4160   -2.8330 O         1 <0>         0.0000
  45469 WAT       -30.9320  -73.4160   -2.5830 O         1 <0>         0.0000
  45470 WAT       -30.9320  -73.4160   -2.3330 O         1 <0>         0.0000
  45471 WAT       -30.9320  -73.4160   -2.0830 O         1 <0>         0.0000
  45472 WAT       -30.9320  -73.4160   -1.8330 O         1 <0>         0.0000
  45473 WAT       -30.9320  -73.4160   -1.5830 O         1 <0>         0.0000
  45474 WAT       -30.9320  -73.4160   -1.3330 O         1 <0>         0.0000
  45475 WAT       -30.9320  -73.4160   -1.0830 O         1 <0>         0.0000
  45476 WAT       -30.9320  -73.4160   -0.8330 O         1 <0>         0.0000
  45477 WAT       -30.9320  -73.4160   -0.5830 O         1 <0>         0.0000
  45478 WAT       -30.9320  -73.4160   -0.3330 O         1 <0>         0.0000
  45479 WAT       -30.9320  -73.4160   -0.0830 O         1 <0>         0.0000
  45480 WAT       -30.9320  -73.1660   -9.8330 O         1 <0>         0.0000
  45481 WAT       -30.9320  -73.1660   -9.5830 O         1 <0>         0.0000
  45482 WAT       -30.9320  -73.1660   -9.3330 O         1 <0>         0.0000
  45483 WAT       -30.9320  -73.1660   -9.0830 O         1 <0>         0.0000
  45484 WAT       -30.9320  -73.1660   -8.8330 O         1 <0>         0.0000
  45485 WAT       -30.9320  -73.1660   -8.5830 O         1 <0>         0.0000
  45486 WAT       -30.9320  -73.1660   -8.3330 O         1 <0>         0.0001
  45487 WAT       -30.9320  -73.1660   -8.0830 O         1 <0>         0.0003
  45488 WAT       -30.9320  -73.1660   -7.8330 O         1 <0>         0.0006
  45489 WAT       -30.9320  -73.1660   -7.5830 O         1 <0>         0.0006
  45490 WAT       -30.9320  -73.1660   -7.3330 O         1 <0>         0.0004
  45491 WAT       -30.9320  -73.1660   -7.0830 O         1 <0>         0.0002
  45492 WAT       -30.9320  -73.1660   -6.8330 O         1 <0>         0.0001
  45493 WAT       -30.9320  -73.1660   -6.5830 O         1 <0>         0.0001
  45494 WAT       -30.9320  -73.1660   -6.3330 O         1 <0>         0.0003
  45495 WAT       -30.9320  -73.1660   -6.0830 O         1 <0>         0.0016
  45496 WAT       -30.9320  -73.1660   -5.8330 O         1 <0>         0.0075
  45497 WAT       -30.9320  -73.1660   -5.5830 O         1 <0>         0.0258
  45498 WAT       -30.9320  -73.1660   -5.3330 O         1 <0>         0.0643
  45499 WAT       -30.9320  -73.1660   -5.0830 O         1 <0>         0.1179
  45500 WAT       -30.9320  -73.1660   -4.8330 O         1 <0>         0.1592
  45501 WAT       -30.9320  -73.1660   -4.5830 O         1 <0>         0.1584
  45502 WAT       -30.9320  -73.1660   -4.3330 O         1 <0>         0.1163
  45503 WAT       -30.9320  -73.1660   -4.0830 O         1 <0>         0.0627
  45504 WAT       -30.9320  -73.1660   -3.8330 O         1 <0>         0.0244
  45505 WAT       -30.9320  -73.1660   -3.5830 O         1 <0>         0.0066
  45506 WAT       -30.9320  -73.1660   -3.3330 O         1 <0>         0.0012
  45507 WAT       -30.9320  -73.1660   -3.0830 O         1 <0>         0.0001
  45508 WAT       -30.9320  -73.1660   -2.8330 O         1 <0>         0.0000
  45509 WAT       -30.9320  -73.1660   -2.5830 O         1 <0>         0.0000
  45510 WAT       -30.9320  -73.1660   -2.3330 O         1 <0>         0.0000
  45511 WAT       -30.9320  -73.1660   -2.0830 O         1 <0>         0.0000
  45512 WAT       -30.9320  -73.1660   -1.8330 O         1 <0>         0.0000
  45513 WAT       -30.9320  -73.1660   -1.5830 O         1 <0>         0.0000
  45514 WAT       -30.9320  -73.1660   -1.3330 O         1 <0>         0.0000
  45515 WAT       -30.9320  -73.1660   -1.0830 O         1 <0>         0.0000
  45516 WAT       -30.9320  -73.1660   -0.8330 O         1 <0>         0.0000
  45517 WAT       -30.9320  -73.1660   -0.5830 O         1 <0>         0.0000
  45518 WAT       -30.9320  -73.1660   -0.3330 O         1 <0>         0.0000
  45519 WAT       -30.9320  -73.1660   -0.0830 O         1 <0>         0.0000
  45520 WAT       -30.9320  -72.9160   -9.8330 O         1 <0>         0.0000
  45521 WAT       -30.9320  -72.9160   -9.5830 O         1 <0>         0.0000
  45522 WAT       -30.9320  -72.9160   -9.3330 O         1 <0>         0.0000
  45523 WAT       -30.9320  -72.9160   -9.0830 O         1 <0>         0.0000
  45524 WAT       -30.9320  -72.9160   -8.8330 O         1 <0>         0.0000
  45525 WAT       -30.9320  -72.9160   -8.5830 O         1 <0>         0.0001
  45526 WAT       -30.9320  -72.9160   -8.3330 O         1 <0>         0.0013
  45527 WAT       -30.9320  -72.9160   -8.0830 O         1 <0>         0.0039
  45528 WAT       -30.9320  -72.9160   -7.8330 O         1 <0>         0.0060
  45529 WAT       -30.9320  -72.9160   -7.5830 O         1 <0>         0.0053
  45530 WAT       -30.9320  -72.9160   -7.3330 O         1 <0>         0.0031
  45531 WAT       -30.9320  -72.9160   -7.0830 O         1 <0>         0.0012
  45532 WAT       -30.9320  -72.9160   -6.8330 O         1 <0>         0.0004
  45533 WAT       -30.9320  -72.9160   -6.5830 O         1 <0>         0.0003
  45534 WAT       -30.9320  -72.9160   -6.3330 O         1 <0>         0.0007
  45535 WAT       -30.9320  -72.9160   -6.0830 O         1 <0>         0.0038
  45536 WAT       -30.9320  -72.9160   -5.8330 O         1 <0>         0.0166
  45537 WAT       -30.9320  -72.9160   -5.5830 O         1 <0>         0.0543
  45538 WAT       -30.9320  -72.9160   -5.3330 O         1 <0>         0.1309
  45539 WAT       -30.9320  -72.9160   -5.0830 O         1 <0>         0.2326
  45540 WAT       -30.9320  -72.9160   -4.8330 O         1 <0>         0.3044
  45541 WAT       -30.9320  -72.9160   -4.5830 O         1 <0>         0.2939
  45542 WAT       -30.9320  -72.9160   -4.3330 O         1 <0>         0.2105
  45543 WAT       -30.9320  -72.9160   -4.0830 O         1 <0>         0.1120
  45544 WAT       -30.9320  -72.9160   -3.8330 O         1 <0>         0.0441
  45545 WAT       -30.9320  -72.9160   -3.5830 O         1 <0>         0.0126
  45546 WAT       -30.9320  -72.9160   -3.3330 O         1 <0>         0.0026
  45547 WAT       -30.9320  -72.9160   -3.0830 O         1 <0>         0.0004
  45548 WAT       -30.9320  -72.9160   -2.8330 O         1 <0>         0.0001
  45549 WAT       -30.9320  -72.9160   -2.5830 O         1 <0>         0.0000
  45550 WAT       -30.9320  -72.9160   -2.3330 O         1 <0>         0.0000
  45551 WAT       -30.9320  -72.9160   -2.0830 O         1 <0>         0.0000
  45552 WAT       -30.9320  -72.9160   -1.8330 O         1 <0>         0.0000
  45553 WAT       -30.9320  -72.9160   -1.5830 O         1 <0>         0.0000
  45554 WAT       -30.9320  -72.9160   -1.3330 O         1 <0>         0.0000
  45555 WAT       -30.9320  -72.9160   -1.0830 O         1 <0>         0.0000
  45556 WAT       -30.9320  -72.9160   -0.8330 O         1 <0>         0.0000
  45557 WAT       -30.9320  -72.9160   -0.5830 O         1 <0>         0.0000
  45558 WAT       -30.9320  -72.9160   -0.3330 O         1 <0>         0.0000
  45559 WAT       -30.9320  -72.9160   -0.0830 O         1 <0>         0.0000
  45560 WAT       -30.9320  -72.6660   -9.8330 O         1 <0>         0.0000
  45561 WAT       -30.9320  -72.6660   -9.5830 O         1 <0>         0.0000
  45562 WAT       -30.9320  -72.6660   -9.3330 O         1 <0>         0.0000
  45563 WAT       -30.9320  -72.6660   -9.0830 O         1 <0>         0.0000
  45564 WAT       -30.9320  -72.6660   -8.8330 O         1 <0>         0.0001
  45565 WAT       -30.9320  -72.6660   -8.5830 O         1 <0>         0.0024
  45566 WAT       -30.9320  -72.6660   -8.3330 O         1 <0>         0.0116
  45567 WAT       -30.9320  -72.6660   -8.0830 O         1 <0>         0.0257
  45568 WAT       -30.9320  -72.6660   -7.8330 O         1 <0>         0.0335
  45569 WAT       -30.9320  -72.6660   -7.5830 O         1 <0>         0.0276
  45570 WAT       -30.9320  -72.6660   -7.3330 O         1 <0>         0.0148
  45571 WAT       -30.9320  -72.6660   -7.0830 O         1 <0>         0.0054
  45572 WAT       -30.9320  -72.6660   -6.8330 O         1 <0>         0.0016
  45573 WAT       -30.9320  -72.6660   -6.5830 O         1 <0>         0.0007
  45574 WAT       -30.9320  -72.6660   -6.3330 O         1 <0>         0.0013
  45575 WAT       -30.9320  -72.6660   -6.0830 O         1 <0>         0.0061
  45576 WAT       -30.9320  -72.6660   -5.8330 O         1 <0>         0.0258
  45577 WAT       -30.9320  -72.6660   -5.5830 O         1 <0>         0.0823
  45578 WAT       -30.9320  -72.6660   -5.3330 O         1 <0>         0.1933
  45579 WAT       -30.9320  -72.6660   -5.0830 O         1 <0>         0.3354
  45580 WAT       -30.9320  -72.6660   -4.8330 O         1 <0>         0.4278
  45581 WAT       -30.9320  -72.6660   -4.5830 O         1 <0>         0.4020
  45582 WAT       -30.9320  -72.6660   -4.3330 O         1 <0>         0.2806
  45583 WAT       -30.9320  -72.6660   -4.0830 O         1 <0>         0.1471
  45584 WAT       -30.9320  -72.6660   -3.8330 O         1 <0>         0.0581
  45585 WAT       -30.9320  -72.6660   -3.5830 O         1 <0>         0.0173
  45586 WAT       -30.9320  -72.6660   -3.3330 O         1 <0>         0.0040
  45587 WAT       -30.9320  -72.6660   -3.0830 O         1 <0>         0.0008
  45588 WAT       -30.9320  -72.6660   -2.8330 O         1 <0>         0.0001
  45589 WAT       -30.9320  -72.6660   -2.5830 O         1 <0>         0.0000
  45590 WAT       -30.9320  -72.6660   -2.3330 O         1 <0>         0.0000
  45591 WAT       -30.9320  -72.6660   -2.0830 O         1 <0>         0.0000
  45592 WAT       -30.9320  -72.6660   -1.8330 O         1 <0>         0.0000
  45593 WAT       -30.9320  -72.6660   -1.5830 O         1 <0>         0.0000
  45594 WAT       -30.9320  -72.6660   -1.3330 O         1 <0>         0.0000
  45595 WAT       -30.9320  -72.6660   -1.0830 O         1 <0>         0.0000
  45596 WAT       -30.9320  -72.6660   -0.8330 O         1 <0>         0.0000
  45597 WAT       -30.9320  -72.6660   -0.5830 O         1 <0>         0.0000
  45598 WAT       -30.9320  -72.6660   -0.3330 O         1 <0>         0.0000
  45599 WAT       -30.9320  -72.6660   -0.0830 O         1 <0>         0.0000
  45600 WAT       -30.9320  -72.4160   -9.8330 O         1 <0>         0.0000
  45601 WAT       -30.9320  -72.4160   -9.5830 O         1 <0>         0.0000
  45602 WAT       -30.9320  -72.4160   -9.3330 O         1 <0>         0.0000
  45603 WAT       -30.9320  -72.4160   -9.0830 O         1 <0>         0.0000
  45604 WAT       -30.9320  -72.4160   -8.8330 O         1 <0>         0.0015
  45605 WAT       -30.9320  -72.4160   -8.5830 O         1 <0>         0.0143
  45606 WAT       -30.9320  -72.4160   -8.3330 O         1 <0>         0.0483
  45607 WAT       -30.9320  -72.4160   -8.0830 O         1 <0>         0.0929
  45608 WAT       -30.9320  -72.4160   -7.8330 O         1 <0>         0.1128
  45609 WAT       -30.9320  -72.4160   -7.5830 O         1 <0>         0.0883
  45610 WAT       -30.9320  -72.4160   -7.3330 O         1 <0>         0.0452
  45611 WAT       -30.9320  -72.4160   -7.0830 O         1 <0>         0.0156
  45612 WAT       -30.9320  -72.4160   -6.8330 O         1 <0>         0.0042
  45613 WAT       -30.9320  -72.4160   -6.5830 O         1 <0>         0.0015
  45614 WAT       -30.9320  -72.4160   -6.3330 O         1 <0>         0.0018
  45615 WAT       -30.9320  -72.4160   -6.0830 O         1 <0>         0.0071
  45616 WAT       -30.9320  -72.4160   -5.8330 O         1 <0>         0.0294
  45617 WAT       -30.9320  -72.4160   -5.5830 O         1 <0>         0.0919
  45618 WAT       -30.9320  -72.4160   -5.3330 O         1 <0>         0.2121
  45619 WAT       -30.9320  -72.4160   -5.0830 O         1 <0>         0.3602
  45620 WAT       -30.9320  -72.4160   -4.8330 O         1 <0>         0.4491
  45621 WAT       -30.9320  -72.4160   -4.5830 O         1 <0>         0.4122
  45622 WAT       -30.9320  -72.4160   -4.3330 O         1 <0>         0.2819
  45623 WAT       -30.9320  -72.4160   -4.0830 O         1 <0>         0.1460
  45624 WAT       -30.9320  -72.4160   -3.8330 O         1 <0>         0.0580
  45625 WAT       -30.9320  -72.4160   -3.5830 O         1 <0>         0.0180
  45626 WAT       -30.9320  -72.4160   -3.3330 O         1 <0>         0.0046
  45627 WAT       -30.9320  -72.4160   -3.0830 O         1 <0>         0.0010
  45628 WAT       -30.9320  -72.4160   -2.8330 O         1 <0>         0.0002
  45629 WAT       -30.9320  -72.4160   -2.5830 O         1 <0>         0.0000
  45630 WAT       -30.9320  -72.4160   -2.3330 O         1 <0>         0.0000
  45631 WAT       -30.9320  -72.4160   -2.0830 O         1 <0>         0.0000
  45632 WAT       -30.9320  -72.4160   -1.8330 O         1 <0>         0.0000
  45633 WAT       -30.9320  -72.4160   -1.5830 O         1 <0>         0.0000
  45634 WAT       -30.9320  -72.4160   -1.3330 O         1 <0>         0.0000
  45635 WAT       -30.9320  -72.4160   -1.0830 O         1 <0>         0.0000
  45636 WAT       -30.9320  -72.4160   -0.8330 O         1 <0>         0.0000
  45637 WAT       -30.9320  -72.4160   -0.5830 O         1 <0>         0.0000
  45638 WAT       -30.9320  -72.4160   -0.3330 O         1 <0>         0.0000
  45639 WAT       -30.9320  -72.4160   -0.0830 O         1 <0>         0.0000
  45640 WAT       -30.9320  -72.1660   -9.8330 O         1 <0>         0.0000
  45641 WAT       -30.9320  -72.1660   -9.5830 O         1 <0>         0.0000
  45642 WAT       -30.9320  -72.1660   -9.3330 O         1 <0>         0.0000
  45643 WAT       -30.9320  -72.1660   -9.0830 O         1 <0>         0.0003
  45644 WAT       -30.9320  -72.1660   -8.8330 O         1 <0>         0.0073
  45645 WAT       -30.9320  -72.1660   -8.5830 O         1 <0>         0.0423
  45646 WAT       -30.9320  -72.1660   -8.3330 O         1 <0>         0.1211
  45647 WAT       -30.9320  -72.1660   -8.0830 O         1 <0>         0.2163
  45648 WAT       -30.9320  -72.1660   -7.8330 O         1 <0>         0.2483
  45649 WAT       -30.9320  -72.1660   -7.5830 O         1 <0>         0.1851
  45650 WAT       -30.9320  -72.1660   -7.3330 O         1 <0>         0.0908
  45651 WAT       -30.9320  -72.1660   -7.0830 O         1 <0>         0.0298
  45652 WAT       -30.9320  -72.1660   -6.8330 O         1 <0>         0.0072
  45653 WAT       -30.9320  -72.1660   -6.5830 O         1 <0>         0.0022
  45654 WAT       -30.9320  -72.1660   -6.3330 O         1 <0>         0.0020
  45655 WAT       -30.9320  -72.1660   -6.0830 O         1 <0>         0.0064
  45656 WAT       -30.9320  -72.1660   -5.8330 O         1 <0>         0.0253
  45657 WAT       -30.9320  -72.1660   -5.5830 O         1 <0>         0.0781
  45658 WAT       -30.9320  -72.1660   -5.3330 O         1 <0>         0.1776
  45659 WAT       -30.9320  -72.1660   -5.0830 O         1 <0>         0.2958
  45660 WAT       -30.9320  -72.1660   -4.8330 O         1 <0>         0.3610
  45661 WAT       -30.9320  -72.1660   -4.5830 O         1 <0>         0.3248
  45662 WAT       -30.9320  -72.1660   -4.3330 O         1 <0>         0.2189
  45663 WAT       -30.9320  -72.1660   -4.0830 O         1 <0>         0.1127
  45664 WAT       -30.9320  -72.1660   -3.8330 O         1 <0>         0.0451
  45665 WAT       -30.9320  -72.1660   -3.5830 O         1 <0>         0.0145
  45666 WAT       -30.9320  -72.1660   -3.3330 O         1 <0>         0.0040
  45667 WAT       -30.9320  -72.1660   -3.0830 O         1 <0>         0.0010
  45668 WAT       -30.9320  -72.1660   -2.8330 O         1 <0>         0.0002
  45669 WAT       -30.9320  -72.1660   -2.5830 O         1 <0>         0.0000
  45670 WAT       -30.9320  -72.1660   -2.3330 O         1 <0>         0.0000
  45671 WAT       -30.9320  -72.1660   -2.0830 O         1 <0>         0.0000
  45672 WAT       -30.9320  -72.1660   -1.8330 O         1 <0>         0.0000
  45673 WAT       -30.9320  -72.1660   -1.5830 O         1 <0>         0.0000
  45674 WAT       -30.9320  -72.1660   -1.3330 O         1 <0>         0.0000
  45675 WAT       -30.9320  -72.1660   -1.0830 O         1 <0>         0.0000
  45676 WAT       -30.9320  -72.1660   -0.8330 O         1 <0>         0.0000
  45677 WAT       -30.9320  -72.1660   -0.5830 O         1 <0>         0.0000
  45678 WAT       -30.9320  -72.1660   -0.3330 O         1 <0>         0.0000
  45679 WAT       -30.9320  -72.1660   -0.0830 O         1 <0>         0.0000
  45680 WAT       -30.9320  -71.9160   -9.8330 O         1 <0>         0.0000
  45681 WAT       -30.9320  -71.9160   -9.5830 O         1 <0>         0.0000
  45682 WAT       -30.9320  -71.9160   -9.3330 O         1 <0>         0.0000
  45683 WAT       -30.9320  -71.9160   -9.0830 O         1 <0>         0.0013
  45684 WAT       -30.9320  -71.9160   -8.8330 O         1 <0>         0.0169
  45685 WAT       -30.9320  -71.9160   -8.5830 O         1 <0>         0.0772
  45686 WAT       -30.9320  -71.9160   -8.3330 O         1 <0>         0.2026
  45687 WAT       -30.9320  -71.9160   -8.0830 O         1 <0>         0.3398
  45688 WAT       -30.9320  -71.9160   -7.8330 O         1 <0>         0.3689
  45689 WAT       -30.9320  -71.9160   -7.5830 O         1 <0>         0.2614
  45690 WAT       -30.9320  -71.9160   -7.3330 O         1 <0>         0.1224
  45691 WAT       -30.9320  -71.9160   -7.0830 O         1 <0>         0.0381
  45692 WAT       -30.9320  -71.9160   -6.8330 O         1 <0>         0.0083
  45693 WAT       -30.9320  -71.9160   -6.5830 O         1 <0>         0.0022
  45694 WAT       -30.9320  -71.9160   -6.3330 O         1 <0>         0.0016
  45695 WAT       -30.9320  -71.9160   -6.0830 O         1 <0>         0.0044
  45696 WAT       -30.9320  -71.9160   -5.8330 O         1 <0>         0.0169
  45697 WAT       -30.9320  -71.9160   -5.5830 O         1 <0>         0.0521
  45698 WAT       -30.9320  -71.9160   -5.3330 O         1 <0>         0.1177
  45699 WAT       -30.9320  -71.9160   -5.0830 O         1 <0>         0.1926
  45700 WAT       -30.9320  -71.9160   -4.8330 O         1 <0>         0.2301
  45701 WAT       -30.9320  -71.9160   -4.5830 O         1 <0>         0.2029
  45702 WAT       -30.9320  -71.9160   -4.3330 O         1 <0>         0.1346
  45703 WAT       -30.9320  -71.9160   -4.0830 O         1 <0>         0.0686
  45704 WAT       -30.9320  -71.9160   -3.8330 O         1 <0>         0.0275
  45705 WAT       -30.9320  -71.9160   -3.5830 O         1 <0>         0.0091
  45706 WAT       -30.9320  -71.9160   -3.3330 O         1 <0>         0.0027
  45707 WAT       -30.9320  -71.9160   -3.0830 O         1 <0>         0.0008
  45708 WAT       -30.9320  -71.9160   -2.8330 O         1 <0>         0.0002
  45709 WAT       -30.9320  -71.9160   -2.5830 O         1 <0>         0.0001
  45710 WAT       -30.9320  -71.9160   -2.3330 O         1 <0>         0.0000
  45711 WAT       -30.9320  -71.9160   -2.0830 O         1 <0>         0.0000
  45712 WAT       -30.9320  -71.9160   -1.8330 O         1 <0>         0.0000
  45713 WAT       -30.9320  -71.9160   -1.5830 O         1 <0>         0.0000
  45714 WAT       -30.9320  -71.9160   -1.3330 O         1 <0>         0.0000
  45715 WAT       -30.9320  -71.9160   -1.0830 O         1 <0>         0.0000
  45716 WAT       -30.9320  -71.9160   -0.8330 O         1 <0>         0.0000
  45717 WAT       -30.9320  -71.9160   -0.5830 O         1 <0>         0.0000
  45718 WAT       -30.9320  -71.9160   -0.3330 O         1 <0>         0.0000
  45719 WAT       -30.9320  -71.9160   -0.0830 O         1 <0>         0.0000
  45720 WAT       -30.9320  -71.6660   -9.8330 O         1 <0>         0.0000
  45721 WAT       -30.9320  -71.6660   -9.5830 O         1 <0>         0.0000
  45722 WAT       -30.9320  -71.6660   -9.3330 O         1 <0>         0.0001
  45723 WAT       -30.9320  -71.6660   -9.0830 O         1 <0>         0.0028
  45724 WAT       -30.9320  -71.6660   -8.8330 O         1 <0>         0.0238
  45725 WAT       -30.9320  -71.6660   -8.5830 O         1 <0>         0.0960
  45726 WAT       -30.9320  -71.6660   -8.3330 O         1 <0>         0.2337
  45727 WAT       -30.9320  -71.6660   -8.0830 O         1 <0>         0.3666
  45728 WAT       -30.9320  -71.6660   -7.8330 O         1 <0>         0.3748
  45729 WAT       -30.9320  -71.6660   -7.5830 O         1 <0>         0.2516
  45730 WAT       -30.9320  -71.6660   -7.3330 O         1 <0>         0.1121
  45731 WAT       -30.9320  -71.6660   -7.0830 O         1 <0>         0.0326
  45732 WAT       -30.9320  -71.6660   -6.8330 O         1 <0>         0.0064
  45733 WAT       -30.9320  -71.6660   -6.5830 O         1 <0>         0.0015
  45734 WAT       -30.9320  -71.6660   -6.3330 O         1 <0>         0.0010
  45735 WAT       -30.9320  -71.6660   -6.0830 O         1 <0>         0.0025
  45736 WAT       -30.9320  -71.6660   -5.8330 O         1 <0>         0.0093
  45737 WAT       -30.9320  -71.6660   -5.5830 O         1 <0>         0.0286
  45738 WAT       -30.9320  -71.6660   -5.3330 O         1 <0>         0.0642
  45739 WAT       -30.9320  -71.6660   -5.0830 O         1 <0>         0.1034
  45740 WAT       -30.9320  -71.6660   -4.8330 O         1 <0>         0.1207
  45741 WAT       -30.9320  -71.6660   -4.5830 O         1 <0>         0.1036
  45742 WAT       -30.9320  -71.6660   -4.3330 O         1 <0>         0.0669
  45743 WAT       -30.9320  -71.6660   -4.0830 O         1 <0>         0.0333
  45744 WAT       -30.9320  -71.6660   -3.8330 O         1 <0>         0.0132
  45745 WAT       -30.9320  -71.6660   -3.5830 O         1 <0>         0.0044
  45746 WAT       -30.9320  -71.6660   -3.3330 O         1 <0>         0.0014
  45747 WAT       -30.9320  -71.6660   -3.0830 O         1 <0>         0.0004
  45748 WAT       -30.9320  -71.6660   -2.8330 O         1 <0>         0.0001
  45749 WAT       -30.9320  -71.6660   -2.5830 O         1 <0>         0.0000
  45750 WAT       -30.9320  -71.6660   -2.3330 O         1 <0>         0.0000
  45751 WAT       -30.9320  -71.6660   -2.0830 O         1 <0>         0.0000
  45752 WAT       -30.9320  -71.6660   -1.8330 O         1 <0>         0.0000
  45753 WAT       -30.9320  -71.6660   -1.5830 O         1 <0>         0.0000
  45754 WAT       -30.9320  -71.6660   -1.3330 O         1 <0>         0.0000
  45755 WAT       -30.9320  -71.6660   -1.0830 O         1 <0>         0.0000
  45756 WAT       -30.9320  -71.6660   -0.8330 O         1 <0>         0.0000
  45757 WAT       -30.9320  -71.6660   -0.5830 O         1 <0>         0.0000
  45758 WAT       -30.9320  -71.6660   -0.3330 O         1 <0>         0.0000
  45759 WAT       -30.9320  -71.6660   -0.0830 O         1 <0>         0.0000
  45760 WAT       -30.9320  -71.4160   -9.8330 O         1 <0>         0.0000
  45761 WAT       -30.9320  -71.4160   -9.5830 O         1 <0>         0.0000
  45762 WAT       -30.9320  -71.4160   -9.3330 O         1 <0>         0.0002
  45763 WAT       -30.9320  -71.4160   -9.0830 O         1 <0>         0.0034
  45764 WAT       -30.9320  -71.4160   -8.8330 O         1 <0>         0.0228
  45765 WAT       -30.9320  -71.4160   -8.5830 O         1 <0>         0.0838
  45766 WAT       -30.9320  -71.4160   -8.3330 O         1 <0>         0.1892
  45767 WAT       -30.9320  -71.4160   -8.0830 O         1 <0>         0.2761
  45768 WAT       -30.9320  -71.4160   -7.8330 O         1 <0>         0.2641
  45769 WAT       -30.9320  -71.4160   -7.5830 O         1 <0>         0.1672
  45770 WAT       -30.9320  -71.4160   -7.3330 O         1 <0>         0.0702
  45771 WAT       -30.9320  -71.4160   -7.0830 O         1 <0>         0.0184
  45772 WAT       -30.9320  -71.4160   -6.8330 O         1 <0>         0.0032
  45773 WAT       -30.9320  -71.4160   -6.5830 O         1 <0>         0.0008
  45774 WAT       -30.9320  -71.4160   -6.3330 O         1 <0>         0.0005
  45775 WAT       -30.9320  -71.4160   -6.0830 O         1 <0>         0.0012
  45776 WAT       -30.9320  -71.4160   -5.8330 O         1 <0>         0.0044
  45777 WAT       -30.9320  -71.4160   -5.5830 O         1 <0>         0.0135
  45778 WAT       -30.9320  -71.4160   -5.3330 O         1 <0>         0.0299
  45779 WAT       -30.9320  -71.4160   -5.0830 O         1 <0>         0.0472
  45780 WAT       -30.9320  -71.4160   -4.8330 O         1 <0>         0.0535
  45781 WAT       -30.9320  -71.4160   -4.5830 O         1 <0>         0.0442
  45782 WAT       -30.9320  -71.4160   -4.3330 O         1 <0>         0.0273
  45783 WAT       -30.9320  -71.4160   -4.0830 O         1 <0>         0.0129
  45784 WAT       -30.9320  -71.4160   -3.8330 O         1 <0>         0.0050
  45785 WAT       -30.9320  -71.4160   -3.5830 O         1 <0>         0.0017
  45786 WAT       -30.9320  -71.4160   -3.3330 O         1 <0>         0.0005
  45787 WAT       -30.9320  -71.4160   -3.0830 O         1 <0>         0.0002
  45788 WAT       -30.9320  -71.4160   -2.8330 O         1 <0>         0.0001
  45789 WAT       -30.9320  -71.4160   -2.5830 O         1 <0>         0.0000
  45790 WAT       -30.9320  -71.4160   -2.3330 O         1 <0>         0.0000
  45791 WAT       -30.9320  -71.4160   -2.0830 O         1 <0>         0.0000
  45792 WAT       -30.9320  -71.4160   -1.8330 O         1 <0>         0.0000
  45793 WAT       -30.9320  -71.4160   -1.5830 O         1 <0>         0.0000
  45794 WAT       -30.9320  -71.4160   -1.3330 O         1 <0>         0.0000
  45795 WAT       -30.9320  -71.4160   -1.0830 O         1 <0>         0.0000
  45796 WAT       -30.9320  -71.4160   -0.8330 O         1 <0>         0.0000
  45797 WAT       -30.9320  -71.4160   -0.5830 O         1 <0>         0.0000
  45798 WAT       -30.9320  -71.4160   -0.3330 O         1 <0>         0.0000
  45799 WAT       -30.9320  -71.4160   -0.0830 O         1 <0>         0.0000
  45800 WAT       -30.9320  -71.1660   -9.8330 O         1 <0>         0.0000
  45801 WAT       -30.9320  -71.1660   -9.5830 O         1 <0>         0.0000
  45802 WAT       -30.9320  -71.1660   -9.3330 O         1 <0>         0.0002
  45803 WAT       -30.9320  -71.1660   -9.0830 O         1 <0>         0.0026
  45804 WAT       -30.9320  -71.1660   -8.8330 O         1 <0>         0.0155
  45805 WAT       -30.9320  -71.1660   -8.5830 O         1 <0>         0.0520
  45806 WAT       -30.9320  -71.1660   -8.3330 O         1 <0>         0.1089
  45807 WAT       -30.9320  -71.1660   -8.0830 O         1 <0>         0.1473
  45808 WAT       -30.9320  -71.1660   -7.8330 O         1 <0>         0.1311
  45809 WAT       -30.9320  -71.1660   -7.5830 O         1 <0>         0.0774
  45810 WAT       -30.9320  -71.1660   -7.3330 O         1 <0>         0.0295
  45811 WAT       -30.9320  -71.1660   -7.0830 O         1 <0>         0.0065
  45812 WAT       -30.9320  -71.1660   -6.8330 O         1 <0>         0.0011
  45813 WAT       -30.9320  -71.1660   -6.5830 O         1 <0>         0.0003
  45814 WAT       -30.9320  -71.1660   -6.3330 O         1 <0>         0.0002
  45815 WAT       -30.9320  -71.1660   -6.0830 O         1 <0>         0.0005
  45816 WAT       -30.9320  -71.1660   -5.8330 O         1 <0>         0.0019
  45817 WAT       -30.9320  -71.1660   -5.5830 O         1 <0>         0.0058
  45818 WAT       -30.9320  -71.1660   -5.3330 O         1 <0>         0.0124
  45819 WAT       -30.9320  -71.1660   -5.0830 O         1 <0>         0.0186
  45820 WAT       -30.9320  -71.1660   -4.8330 O         1 <0>         0.0201
  45821 WAT       -30.9320  -71.1660   -4.5830 O         1 <0>         0.0157
  45822 WAT       -30.9320  -71.1660   -4.3330 O         1 <0>         0.0091
  45823 WAT       -30.9320  -71.1660   -4.0830 O         1 <0>         0.0040
  45824 WAT       -30.9320  -71.1660   -3.8330 O         1 <0>         0.0015
  45825 WAT       -30.9320  -71.1660   -3.5830 O         1 <0>         0.0005
  45826 WAT       -30.9320  -71.1660   -3.3330 O         1 <0>         0.0002
  45827 WAT       -30.9320  -71.1660   -3.0830 O         1 <0>         0.0001
  45828 WAT       -30.9320  -71.1660   -2.8330 O         1 <0>         0.0000
  45829 WAT       -30.9320  -71.1660   -2.5830 O         1 <0>         0.0000
  45830 WAT       -30.9320  -71.1660   -2.3330 O         1 <0>         0.0000
  45831 WAT       -30.9320  -71.1660   -2.0830 O         1 <0>         0.0000
  45832 WAT       -30.9320  -71.1660   -1.8330 O         1 <0>         0.0000
  45833 WAT       -30.9320  -71.1660   -1.5830 O         1 <0>         0.0000
  45834 WAT       -30.9320  -71.1660   -1.3330 O         1 <0>         0.0000
  45835 WAT       -30.9320  -71.1660   -1.0830 O         1 <0>         0.0000
  45836 WAT       -30.9320  -71.1660   -0.8330 O         1 <0>         0.0000
  45837 WAT       -30.9320  -71.1660   -0.5830 O         1 <0>         0.0000
  45838 WAT       -30.9320  -71.1660   -0.3330 O         1 <0>         0.0000
  45839 WAT       -30.9320  -71.1660   -0.0830 O         1 <0>         0.0000
  45840 WAT       -30.9320  -70.9160   -9.8330 O         1 <0>         0.0000
  45841 WAT       -30.9320  -70.9160   -9.5830 O         1 <0>         0.0000
  45842 WAT       -30.9320  -70.9160   -9.3330 O         1 <0>         0.0001
  45843 WAT       -30.9320  -70.9160   -9.0830 O         1 <0>         0.0015
  45844 WAT       -30.9320  -70.9160   -8.8330 O         1 <0>         0.0077
  45845 WAT       -30.9320  -70.9160   -8.5830 O         1 <0>         0.0233
  45846 WAT       -30.9320  -70.9160   -8.3330 O         1 <0>         0.0448
  45847 WAT       -30.9320  -70.9160   -8.0830 O         1 <0>         0.0559
  45848 WAT       -30.9320  -70.9160   -7.8330 O         1 <0>         0.0457
  45849 WAT       -30.9320  -70.9160   -7.5830 O         1 <0>         0.0244
  45850 WAT       -30.9320  -70.9160   -7.3330 O         1 <0>         0.0078
  45851 WAT       -30.9320  -70.9160   -7.0830 O         1 <0>         0.0015
  45852 WAT       -30.9320  -70.9160   -6.8330 O         1 <0>         0.0003
  45853 WAT       -30.9320  -70.9160   -6.5830 O         1 <0>         0.0001
  45854 WAT       -30.9320  -70.9160   -6.3330 O         1 <0>         0.0001
  45855 WAT       -30.9320  -70.9160   -6.0830 O         1 <0>         0.0003
  45856 WAT       -30.9320  -70.9160   -5.8330 O         1 <0>         0.0010
  45857 WAT       -30.9320  -70.9160   -5.5830 O         1 <0>         0.0025
  45858 WAT       -30.9320  -70.9160   -5.3330 O         1 <0>         0.0047
  45859 WAT       -30.9320  -70.9160   -5.0830 O         1 <0>         0.0066
  45860 WAT       -30.9320  -70.9160   -4.8330 O         1 <0>         0.0066
  45861 WAT       -30.9320  -70.9160   -4.5830 O         1 <0>         0.0048
  45862 WAT       -30.9320  -70.9160   -4.3330 O         1 <0>         0.0026
  45863 WAT       -30.9320  -70.9160   -4.0830 O         1 <0>         0.0011
  45864 WAT       -30.9320  -70.9160   -3.8330 O         1 <0>         0.0004
  45865 WAT       -30.9320  -70.9160   -3.5830 O         1 <0>         0.0001
  45866 WAT       -30.9320  -70.9160   -3.3330 O         1 <0>         0.0000
  45867 WAT       -30.9320  -70.9160   -3.0830 O         1 <0>         0.0000
  45868 WAT       -30.9320  -70.9160   -2.8330 O         1 <0>         0.0000
  45869 WAT       -30.9320  -70.9160   -2.5830 O         1 <0>         0.0000
  45870 WAT       -30.9320  -70.9160   -2.3330 O         1 <0>         0.0000
  45871 WAT       -30.9320  -70.9160   -2.0830 O         1 <0>         0.0000
  45872 WAT       -30.9320  -70.9160   -1.8330 O         1 <0>         0.0000
  45873 WAT       -30.9320  -70.9160   -1.5830 O         1 <0>         0.0000
  45874 WAT       -30.9320  -70.9160   -1.3330 O         1 <0>         0.0000
  45875 WAT       -30.9320  -70.9160   -1.0830 O         1 <0>         0.0000
  45876 WAT       -30.9320  -70.9160   -0.8330 O         1 <0>         0.0000
  45877 WAT       -30.9320  -70.9160   -0.5830 O         1 <0>         0.0000
  45878 WAT       -30.9320  -70.9160   -0.3330 O         1 <0>         0.0000
  45879 WAT       -30.9320  -70.9160   -0.0830 O         1 <0>         0.0000
  45880 WAT       -30.9320  -70.6660   -9.8330 O         1 <0>         0.0000
  45881 WAT       -30.9320  -70.6660   -9.5830 O         1 <0>         0.0000
  45882 WAT       -30.9320  -70.6660   -9.3330 O         1 <0>         0.0001
  45883 WAT       -30.9320  -70.6660   -9.0830 O         1 <0>         0.0006
  45884 WAT       -30.9320  -70.6660   -8.8330 O         1 <0>         0.0028
  45885 WAT       -30.9320  -70.6660   -8.5830 O         1 <0>         0.0078
  45886 WAT       -30.9320  -70.6660   -8.3330 O         1 <0>         0.0136
  45887 WAT       -30.9320  -70.6660   -8.0830 O         1 <0>         0.0153
  45888 WAT       -30.9320  -70.6660   -7.8330 O         1 <0>         0.0111
  45889 WAT       -30.9320  -70.6660   -7.5830 O         1 <0>         0.0052
  45890 WAT       -30.9320  -70.6660   -7.3330 O         1 <0>         0.0015
  45891 WAT       -30.9320  -70.6660   -7.0830 O         1 <0>         0.0003
  45892 WAT       -30.9320  -70.6660   -6.8330 O         1 <0>         0.0001
  45893 WAT       -30.9320  -70.6660   -6.5830 O         1 <0>         0.0000
  45894 WAT       -30.9320  -70.6660   -6.3330 O         1 <0>         0.0001
  45895 WAT       -30.9320  -70.6660   -6.0830 O         1 <0>         0.0003
  45896 WAT       -30.9320  -70.6660   -5.8330 O         1 <0>         0.0007
  45897 WAT       -30.9320  -70.6660   -5.5830 O         1 <0>         0.0013
  45898 WAT       -30.9320  -70.6660   -5.3330 O         1 <0>         0.0019
  45899 WAT       -30.9320  -70.6660   -5.0830 O         1 <0>         0.0023
  45900 WAT       -30.9320  -70.6660   -4.8330 O         1 <0>         0.0021
  45901 WAT       -30.9320  -70.6660   -4.5830 O         1 <0>         0.0015
  45902 WAT       -30.9320  -70.6660   -4.3330 O         1 <0>         0.0008
  45903 WAT       -30.9320  -70.6660   -4.0830 O         1 <0>         0.0003
  45904 WAT       -30.9320  -70.6660   -3.8330 O         1 <0>         0.0001
  45905 WAT       -30.9320  -70.6660   -3.5830 O         1 <0>         0.0000
  45906 WAT       -30.9320  -70.6660   -3.3330 O         1 <0>         0.0000
  45907 WAT       -30.9320  -70.6660   -3.0830 O         1 <0>         0.0000
  45908 WAT       -30.9320  -70.6660   -2.8330 O         1 <0>         0.0000
  45909 WAT       -30.9320  -70.6660   -2.5830 O         1 <0>         0.0000
  45910 WAT       -30.9320  -70.6660   -2.3330 O         1 <0>         0.0000
  45911 WAT       -30.9320  -70.6660   -2.0830 O         1 <0>         0.0000
  45912 WAT       -30.9320  -70.6660   -1.8330 O         1 <0>         0.0000
  45913 WAT       -30.9320  -70.6660   -1.5830 O         1 <0>         0.0000
  45914 WAT       -30.9320  -70.6660   -1.3330 O         1 <0>         0.0000
  45915 WAT       -30.9320  -70.6660   -1.0830 O         1 <0>         0.0000
  45916 WAT       -30.9320  -70.6660   -0.8330 O         1 <0>         0.0000
  45917 WAT       -30.9320  -70.6660   -0.5830 O         1 <0>         0.0000
  45918 WAT       -30.9320  -70.6660   -0.3330 O         1 <0>         0.0000
  45919 WAT       -30.9320  -70.6660   -0.0830 O         1 <0>         0.0000
  45920 WAT       -30.9320  -70.4160   -9.8330 O         1 <0>         0.0000
  45921 WAT       -30.9320  -70.4160   -9.5830 O         1 <0>         0.0000
  45922 WAT       -30.9320  -70.4160   -9.3330 O         1 <0>         0.0000
  45923 WAT       -30.9320  -70.4160   -9.0830 O         1 <0>         0.0002
  45924 WAT       -30.9320  -70.4160   -8.8330 O         1 <0>         0.0008
  45925 WAT       -30.9320  -70.4160   -8.5830 O         1 <0>         0.0020
  45926 WAT       -30.9320  -70.4160   -8.3330 O         1 <0>         0.0032
  45927 WAT       -30.9320  -70.4160   -8.0830 O         1 <0>         0.0032
  45928 WAT       -30.9320  -70.4160   -7.8330 O         1 <0>         0.0021
  45929 WAT       -30.9320  -70.4160   -7.5830 O         1 <0>         0.0009
  45930 WAT       -30.9320  -70.4160   -7.3330 O         1 <0>         0.0004
  45931 WAT       -30.9320  -70.4160   -7.0830 O         1 <0>         0.0002
  45932 WAT       -30.9320  -70.4160   -6.8330 O         1 <0>         0.0001
  45933 WAT       -30.9320  -70.4160   -6.5830 O         1 <0>         0.0001
  45934 WAT       -30.9320  -70.4160   -6.3330 O         1 <0>         0.0002
  45935 WAT       -30.9320  -70.4160   -6.0830 O         1 <0>         0.0004
  45936 WAT       -30.9320  -70.4160   -5.8330 O         1 <0>         0.0007
  45937 WAT       -30.9320  -70.4160   -5.5830 O         1 <0>         0.0009
  45938 WAT       -30.9320  -70.4160   -5.3330 O         1 <0>         0.0010
  45939 WAT       -30.9320  -70.4160   -5.0830 O         1 <0>         0.0010
  45940 WAT       -30.9320  -70.4160   -4.8330 O         1 <0>         0.0009
  45941 WAT       -30.9320  -70.4160   -4.5830 O         1 <0>         0.0007
  45942 WAT       -30.9320  -70.4160   -4.3330 O         1 <0>         0.0004
  45943 WAT       -30.9320  -70.4160   -4.0830 O         1 <0>         0.0002
  45944 WAT       -30.9320  -70.4160   -3.8330 O         1 <0>         0.0000
  45945 WAT       -30.9320  -70.4160   -3.5830 O         1 <0>         0.0000
  45946 WAT       -30.9320  -70.4160   -3.3330 O         1 <0>         0.0000
  45947 WAT       -30.9320  -70.4160   -3.0830 O         1 <0>         0.0000
  45948 WAT       -30.9320  -70.4160   -2.8330 O         1 <0>         0.0000
  45949 WAT       -30.9320  -70.4160   -2.5830 O         1 <0>         0.0000
  45950 WAT       -30.9320  -70.4160   -2.3330 O         1 <0>         0.0000
  45951 WAT       -30.9320  -70.4160   -2.0830 O         1 <0>         0.0000
  45952 WAT       -30.9320  -70.4160   -1.8330 O         1 <0>         0.0000
  45953 WAT       -30.9320  -70.4160   -1.5830 O         1 <0>         0.0000
  45954 WAT       -30.9320  -70.4160   -1.3330 O         1 <0>         0.0000
  45955 WAT       -30.9320  -70.4160   -1.0830 O         1 <0>         0.0000
  45956 WAT       -30.9320  -70.4160   -0.8330 O         1 <0>         0.0000
  45957 WAT       -30.9320  -70.4160   -0.5830 O         1 <0>         0.0000
  45958 WAT       -30.9320  -70.4160   -0.3330 O         1 <0>         0.0000
  45959 WAT       -30.9320  -70.4160   -0.0830 O         1 <0>         0.0000
  45960 WAT       -30.9320  -70.1660   -9.8330 O         1 <0>         0.0000
  45961 WAT       -30.9320  -70.1660   -9.5830 O         1 <0>         0.0000
  45962 WAT       -30.9320  -70.1660   -9.3330 O         1 <0>         0.0000
  45963 WAT       -30.9320  -70.1660   -9.0830 O         1 <0>         0.0001
  45964 WAT       -30.9320  -70.1660   -8.8330 O         1 <0>         0.0003
  45965 WAT       -30.9320  -70.1660   -8.5830 O         1 <0>         0.0006
  45966 WAT       -30.9320  -70.1660   -8.3330 O         1 <0>         0.0008
  45967 WAT       -30.9320  -70.1660   -8.0830 O         1 <0>         0.0008
  45968 WAT       -30.9320  -70.1660   -7.8330 O         1 <0>         0.0008
  45969 WAT       -30.9320  -70.1660   -7.5830 O         1 <0>         0.0012
  45970 WAT       -30.9320  -70.1660   -7.3330 O         1 <0>         0.0017
  45971 WAT       -30.9320  -70.1660   -7.0830 O         1 <0>         0.0017
  45972 WAT       -30.9320  -70.1660   -6.8330 O         1 <0>         0.0012
  45973 WAT       -30.9320  -70.1660   -6.5830 O         1 <0>         0.0007
  45974 WAT       -30.9320  -70.1660   -6.3330 O         1 <0>         0.0005
  45975 WAT       -30.9320  -70.1660   -6.0830 O         1 <0>         0.0006
  45976 WAT       -30.9320  -70.1660   -5.8330 O         1 <0>         0.0008
  45977 WAT       -30.9320  -70.1660   -5.5830 O         1 <0>         0.0008
  45978 WAT       -30.9320  -70.1660   -5.3330 O         1 <0>         0.0006
  45979 WAT       -30.9320  -70.1660   -5.0830 O         1 <0>         0.0006
  45980 WAT       -30.9320  -70.1660   -4.8330 O         1 <0>         0.0006
  45981 WAT       -30.9320  -70.1660   -4.5830 O         1 <0>         0.0005
  45982 WAT       -30.9320  -70.1660   -4.3330 O         1 <0>         0.0003
  45983 WAT       -30.9320  -70.1660   -4.0830 O         1 <0>         0.0001
  45984 WAT       -30.9320  -70.1660   -3.8330 O         1 <0>         0.0000
  45985 WAT       -30.9320  -70.1660   -3.5830 O         1 <0>         0.0000
  45986 WAT       -30.9320  -70.1660   -3.3330 O         1 <0>         0.0000
  45987 WAT       -30.9320  -70.1660   -3.0830 O         1 <0>         0.0000
  45988 WAT       -30.9320  -70.1660   -2.8330 O         1 <0>         0.0000
  45989 WAT       -30.9320  -70.1660   -2.5830 O         1 <0>         0.0000
  45990 WAT       -30.9320  -70.1660   -2.3330 O         1 <0>         0.0000
  45991 WAT       -30.9320  -70.1660   -2.0830 O         1 <0>         0.0000
  45992 WAT       -30.9320  -70.1660   -1.8330 O         1 <0>         0.0000
  45993 WAT       -30.9320  -70.1660   -1.5830 O         1 <0>         0.0000
  45994 WAT       -30.9320  -70.1660   -1.3330 O         1 <0>         0.0000
  45995 WAT       -30.9320  -70.1660   -1.0830 O         1 <0>         0.0000
  45996 WAT       -30.9320  -70.1660   -0.8330 O         1 <0>         0.0000
  45997 WAT       -30.9320  -70.1660   -0.5830 O         1 <0>         0.0000
  45998 WAT       -30.9320  -70.1660   -0.3330 O         1 <0>         0.0000
  45999 WAT       -30.9320  -70.1660   -0.0830 O         1 <0>         0.0000
  46000 WAT       -30.9320  -69.9160   -9.8330 O         1 <0>         0.0000
  46001 WAT       -30.9320  -69.9160   -9.5830 O         1 <0>         0.0000
  46002 WAT       -30.9320  -69.9160   -9.3330 O         1 <0>         0.0000
  46003 WAT       -30.9320  -69.9160   -9.0830 O         1 <0>         0.0001
  46004 WAT       -30.9320  -69.9160   -8.8330 O         1 <0>         0.0003
  46005 WAT       -30.9320  -69.9160   -8.5830 O         1 <0>         0.0005
  46006 WAT       -30.9320  -69.9160   -8.3330 O         1 <0>         0.0008
  46007 WAT       -30.9320  -69.9160   -8.0830 O         1 <0>         0.0016
  46008 WAT       -30.9320  -69.9160   -7.8330 O         1 <0>         0.0044
  46009 WAT       -30.9320  -69.9160   -7.5830 O         1 <0>         0.0092
  46010 WAT       -30.9320  -69.9160   -7.3330 O         1 <0>         0.0133
  46011 WAT       -30.9320  -69.9160   -7.0830 O         1 <0>         0.0132
  46012 WAT       -30.9320  -69.9160   -6.8330 O         1 <0>         0.0090
  46013 WAT       -30.9320  -69.9160   -6.5830 O         1 <0>         0.0043
  46014 WAT       -30.9320  -69.9160   -6.3330 O         1 <0>         0.0018
  46015 WAT       -30.9320  -69.9160   -6.0830 O         1 <0>         0.0011
  46016 WAT       -30.9320  -69.9160   -5.8330 O         1 <0>         0.0009
  46017 WAT       -30.9320  -69.9160   -5.5830 O         1 <0>         0.0007
  46018 WAT       -30.9320  -69.9160   -5.3330 O         1 <0>         0.0005
  46019 WAT       -30.9320  -69.9160   -5.0830 O         1 <0>         0.0004
  46020 WAT       -30.9320  -69.9160   -4.8330 O         1 <0>         0.0004
  46021 WAT       -30.9320  -69.9160   -4.5830 O         1 <0>         0.0003
  46022 WAT       -30.9320  -69.9160   -4.3330 O         1 <0>         0.0002
  46023 WAT       -30.9320  -69.9160   -4.0830 O         1 <0>         0.0001
  46024 WAT       -30.9320  -69.9160   -3.8330 O         1 <0>         0.0000
  46025 WAT       -30.9320  -69.9160   -3.5830 O         1 <0>         0.0000
  46026 WAT       -30.9320  -69.9160   -3.3330 O         1 <0>         0.0000
  46027 WAT       -30.9320  -69.9160   -3.0830 O         1 <0>         0.0000
  46028 WAT       -30.9320  -69.9160   -2.8330 O         1 <0>         0.0000
  46029 WAT       -30.9320  -69.9160   -2.5830 O         1 <0>         0.0000
  46030 WAT       -30.9320  -69.9160   -2.3330 O         1 <0>         0.0000
  46031 WAT       -30.9320  -69.9160   -2.0830 O         1 <0>         0.0000
  46032 WAT       -30.9320  -69.9160   -1.8330 O         1 <0>         0.0000
  46033 WAT       -30.9320  -69.9160   -1.5830 O         1 <0>         0.0000
  46034 WAT       -30.9320  -69.9160   -1.3330 O         1 <0>         0.0000
  46035 WAT       -30.9320  -69.9160   -1.0830 O         1 <0>         0.0000
  46036 WAT       -30.9320  -69.9160   -0.8330 O         1 <0>         0.0000
  46037 WAT       -30.9320  -69.9160   -0.5830 O         1 <0>         0.0000
  46038 WAT       -30.9320  -69.9160   -0.3330 O         1 <0>         0.0000
  46039 WAT       -30.9320  -69.9160   -0.0830 O         1 <0>         0.0000
  46040 WAT       -30.9320  -69.6660   -9.8330 O         1 <0>         0.0000
  46041 WAT       -30.9320  -69.6660   -9.5830 O         1 <0>         0.0000
  46042 WAT       -30.9320  -69.6660   -9.3330 O         1 <0>         0.0000
  46043 WAT       -30.9320  -69.6660   -9.0830 O         1 <0>         0.0002
  46044 WAT       -30.9320  -69.6660   -8.8330 O         1 <0>         0.0004
  46045 WAT       -30.9320  -69.6660   -8.5830 O         1 <0>         0.0009
  46046 WAT       -30.9320  -69.6660   -8.3330 O         1 <0>         0.0022
  46047 WAT       -30.9320  -69.6660   -8.0830 O         1 <0>         0.0065
  46048 WAT       -30.9320  -69.6660   -7.8330 O         1 <0>         0.0178
  46049 WAT       -30.9320  -69.6660   -7.5830 O         1 <0>         0.0360
  46050 WAT       -30.9320  -69.6660   -7.3330 O         1 <0>         0.0509
  46051 WAT       -30.9320  -69.6660   -7.0830 O         1 <0>         0.0504
  46052 WAT       -30.9320  -69.6660   -6.8330 O         1 <0>         0.0352
  46053 WAT       -30.9320  -69.6660   -6.5830 O         1 <0>         0.0174
  46054 WAT       -30.9320  -69.6660   -6.3330 O         1 <0>         0.0063
  46055 WAT       -30.9320  -69.6660   -6.0830 O         1 <0>         0.0021
  46056 WAT       -30.9320  -69.6660   -5.8330 O         1 <0>         0.0011
  46057 WAT       -30.9320  -69.6660   -5.5830 O         1 <0>         0.0007
  46058 WAT       -30.9320  -69.6660   -5.3330 O         1 <0>         0.0004
  46059 WAT       -30.9320  -69.6660   -5.0830 O         1 <0>         0.0002
  46060 WAT       -30.9320  -69.6660   -4.8330 O         1 <0>         0.0002
  46061 WAT       -30.9320  -69.6660   -4.5830 O         1 <0>         0.0001
  46062 WAT       -30.9320  -69.6660   -4.3330 O         1 <0>         0.0001
  46063 WAT       -30.9320  -69.6660   -4.0830 O         1 <0>         0.0000
  46064 WAT       -30.9320  -69.6660   -3.8330 O         1 <0>         0.0000
  46065 WAT       -30.9320  -69.6660   -3.5830 O         1 <0>         0.0000
  46066 WAT       -30.9320  -69.6660   -3.3330 O         1 <0>         0.0000
  46067 WAT       -30.9320  -69.6660   -3.0830 O         1 <0>         0.0000
  46068 WAT       -30.9320  -69.6660   -2.8330 O         1 <0>         0.0000
  46069 WAT       -30.9320  -69.6660   -2.5830 O         1 <0>         0.0000
  46070 WAT       -30.9320  -69.6660   -2.3330 O         1 <0>         0.0000
  46071 WAT       -30.9320  -69.6660   -2.0830 O         1 <0>         0.0000
  46072 WAT       -30.9320  -69.6660   -1.8330 O         1 <0>         0.0000
  46073 WAT       -30.9320  -69.6660   -1.5830 O         1 <0>         0.0000
  46074 WAT       -30.9320  -69.6660   -1.3330 O         1 <0>         0.0000
  46075 WAT       -30.9320  -69.6660   -1.0830 O         1 <0>         0.0000
  46076 WAT       -30.9320  -69.6660   -0.8330 O         1 <0>         0.0000
  46077 WAT       -30.9320  -69.6660   -0.5830 O         1 <0>         0.0000
  46078 WAT       -30.9320  -69.6660   -0.3330 O         1 <0>         0.0000
  46079 WAT       -30.9320  -69.6660   -0.0830 O         1 <0>         0.0000
  46080 WAT       -30.9320  -69.4160   -9.8330 O         1 <0>         0.0000
  46081 WAT       -30.9320  -69.4160   -9.5830 O         1 <0>         0.0000
  46082 WAT       -30.9320  -69.4160   -9.3330 O         1 <0>         0.0001
  46083 WAT       -30.9320  -69.4160   -9.0830 O         1 <0>         0.0003
  46084 WAT       -30.9320  -69.4160   -8.8330 O         1 <0>         0.0007
  46085 WAT       -30.9320  -69.4160   -8.5830 O         1 <0>         0.0017
  46086 WAT       -30.9320  -69.4160   -8.3330 O         1 <0>         0.0047
  46087 WAT       -30.9320  -69.4160   -8.0830 O         1 <0>         0.0152
  46088 WAT       -30.9320  -69.4160   -7.8330 O         1 <0>         0.0416
  46089 WAT       -30.9320  -69.4160   -7.5830 O         1 <0>         0.0837
  46090 WAT       -30.9320  -69.4160   -7.3330 O         1 <0>         0.1191
  46091 WAT       -30.9320  -69.4160   -7.0830 O         1 <0>         0.1186
  46092 WAT       -30.9320  -69.4160   -6.8330 O         1 <0>         0.0830
  46093 WAT       -30.9320  -69.4160   -6.5830 O         1 <0>         0.0412
  46094 WAT       -30.9320  -69.4160   -6.3330 O         1 <0>         0.0146
  46095 WAT       -30.9320  -69.4160   -6.0830 O         1 <0>         0.0040
  46096 WAT       -30.9320  -69.4160   -5.8330 O         1 <0>         0.0012
  46097 WAT       -30.9320  -69.4160   -5.5830 O         1 <0>         0.0005
  46098 WAT       -30.9320  -69.4160   -5.3330 O         1 <0>         0.0003
  46099 WAT       -30.9320  -69.4160   -5.0830 O         1 <0>         0.0001
  46100 WAT       -30.9320  -69.4160   -4.8330 O         1 <0>         0.0001
  46101 WAT       -30.9320  -69.4160   -4.5830 O         1 <0>         0.0000
  46102 WAT       -30.9320  -69.4160   -4.3330 O         1 <0>         0.0000
  46103 WAT       -30.9320  -69.4160   -4.0830 O         1 <0>         0.0000
  46104 WAT       -30.9320  -69.4160   -3.8330 O         1 <0>         0.0000
  46105 WAT       -30.9320  -69.4160   -3.5830 O         1 <0>         0.0000
  46106 WAT       -30.9320  -69.4160   -3.3330 O         1 <0>         0.0000
  46107 WAT       -30.9320  -69.4160   -3.0830 O         1 <0>         0.0000
  46108 WAT       -30.9320  -69.4160   -2.8330 O         1 <0>         0.0000
  46109 WAT       -30.9320  -69.4160   -2.5830 O         1 <0>         0.0000
  46110 WAT       -30.9320  -69.4160   -2.3330 O         1 <0>         0.0000
  46111 WAT       -30.9320  -69.4160   -2.0830 O         1 <0>         0.0000
  46112 WAT       -30.9320  -69.4160   -1.8330 O         1 <0>         0.0000
  46113 WAT       -30.9320  -69.4160   -1.5830 O         1 <0>         0.0000
  46114 WAT       -30.9320  -69.4160   -1.3330 O         1 <0>         0.0000
  46115 WAT       -30.9320  -69.4160   -1.0830 O         1 <0>         0.0000
  46116 WAT       -30.9320  -69.4160   -0.8330 O         1 <0>         0.0000
  46117 WAT       -30.9320  -69.4160   -0.5830 O         1 <0>         0.0000
  46118 WAT       -30.9320  -69.4160   -0.3330 O         1 <0>         0.0000
  46119 WAT       -30.9320  -69.4160   -0.0830 O         1 <0>         0.0000
  46120 WAT       -30.9320  -69.1660   -9.8330 O         1 <0>         0.0000
  46121 WAT       -30.9320  -69.1660   -9.5830 O         1 <0>         0.0000
  46122 WAT       -30.9320  -69.1660   -9.3330 O         1 <0>         0.0001
  46123 WAT       -30.9320  -69.1660   -9.0830 O         1 <0>         0.0003
  46124 WAT       -30.9320  -69.1660   -8.8330 O         1 <0>         0.0008
  46125 WAT       -30.9320  -69.1660   -8.5830 O         1 <0>         0.0021
  46126 WAT       -30.9320  -69.1660   -8.3330 O         1 <0>         0.0063
  46127 WAT       -30.9320  -69.1660   -8.0830 O         1 <0>         0.0215
  46128 WAT       -30.9320  -69.1660   -7.8330 O         1 <0>         0.0599
  46129 WAT       -30.9320  -69.1660   -7.5830 O         1 <0>         0.1220
  46130 WAT       -30.9320  -69.1660   -7.3330 O         1 <0>         0.1751
  46131 WAT       -30.9320  -69.1660   -7.0830 O         1 <0>         0.1755
  46132 WAT       -30.9320  -69.1660   -6.8330 O         1 <0>         0.1231
  46133 WAT       -30.9320  -69.1660   -6.5830 O         1 <0>         0.0609
  46134 WAT       -30.9320  -69.1660   -6.3330 O         1 <0>         0.0213
  46135 WAT       -30.9320  -69.1660   -6.0830 O         1 <0>         0.0054
  46136 WAT       -30.9320  -69.1660   -5.8330 O         1 <0>         0.0012
  46137 WAT       -30.9320  -69.1660   -5.5830 O         1 <0>         0.0003
  46138 WAT       -30.9320  -69.1660   -5.3330 O         1 <0>         0.0001
  46139 WAT       -30.9320  -69.1660   -5.0830 O         1 <0>         0.0000
  46140 WAT       -30.9320  -69.1660   -4.8330 O         1 <0>         0.0000
  46141 WAT       -30.9320  -69.1660   -4.5830 O         1 <0>         0.0000
  46142 WAT       -30.9320  -69.1660   -4.3330 O         1 <0>         0.0000
  46143 WAT       -30.9320  -69.1660   -4.0830 O         1 <0>         0.0000
  46144 WAT       -30.9320  -69.1660   -3.8330 O         1 <0>         0.0000
  46145 WAT       -30.9320  -69.1660   -3.5830 O         1 <0>         0.0000
  46146 WAT       -30.9320  -69.1660   -3.3330 O         1 <0>         0.0000
  46147 WAT       -30.9320  -69.1660   -3.0830 O         1 <0>         0.0000
  46148 WAT       -30.9320  -69.1660   -2.8330 O         1 <0>         0.0000
  46149 WAT       -30.9320  -69.1660   -2.5830 O         1 <0>         0.0000
  46150 WAT       -30.9320  -69.1660   -2.3330 O         1 <0>         0.0000
  46151 WAT       -30.9320  -69.1660   -2.0830 O         1 <0>         0.0000
  46152 WAT       -30.9320  -69.1660   -1.8330 O         1 <0>         0.0000
  46153 WAT       -30.9320  -69.1660   -1.5830 O         1 <0>         0.0000
  46154 WAT       -30.9320  -69.1660   -1.3330 O         1 <0>         0.0000
  46155 WAT       -30.9320  -69.1660   -1.0830 O         1 <0>         0.0000
  46156 WAT       -30.9320  -69.1660   -0.8330 O         1 <0>         0.0000
  46157 WAT       -30.9320  -69.1660   -0.5830 O         1 <0>         0.0000
  46158 WAT       -30.9320  -69.1660   -0.3330 O         1 <0>         0.0000
  46159 WAT       -30.9320  -69.1660   -0.0830 O         1 <0>         0.0000
  46160 WAT       -30.9320  -68.9160   -9.8330 O         1 <0>         0.0000
  46161 WAT       -30.9320  -68.9160   -9.5830 O         1 <0>         0.0000
  46162 WAT       -30.9320  -68.9160   -9.3330 O         1 <0>         0.0001
  46163 WAT       -30.9320  -68.9160   -9.0830 O         1 <0>         0.0003
  46164 WAT       -30.9320  -68.9160   -8.8330 O         1 <0>         0.0007
  46165 WAT       -30.9320  -68.9160   -8.5830 O         1 <0>         0.0016
  46166 WAT       -30.9320  -68.9160   -8.3330 O         1 <0>         0.0052
  46167 WAT       -30.9320  -68.9160   -8.0830 O         1 <0>         0.0186
  46168 WAT       -30.9320  -68.9160   -7.8330 O         1 <0>         0.0532
  46169 WAT       -30.9320  -68.9160   -7.5830 O         1 <0>         0.1097
  46170 WAT       -30.9320  -68.9160   -7.3330 O         1 <0>         0.1589
  46171 WAT       -30.9320  -68.9160   -7.0830 O         1 <0>         0.1604
  46172 WAT       -30.9320  -68.9160   -6.8330 O         1 <0>         0.1129
  46173 WAT       -30.9320  -68.9160   -6.5830 O         1 <0>         0.0558
  46174 WAT       -30.9320  -68.9160   -6.3330 O         1 <0>         0.0193
  46175 WAT       -30.9320  -68.9160   -6.0830 O         1 <0>         0.0047
  46176 WAT       -30.9320  -68.9160   -5.8330 O         1 <0>         0.0009
  46177 WAT       -30.9320  -68.9160   -5.5830 O         1 <0>         0.0002
  46178 WAT       -30.9320  -68.9160   -5.3330 O         1 <0>         0.0001
  46179 WAT       -30.9320  -68.9160   -5.0830 O         1 <0>         0.0000
  46180 WAT       -30.9320  -68.9160   -4.8330 O         1 <0>         0.0000
  46181 WAT       -30.9320  -68.9160   -4.5830 O         1 <0>         0.0000
  46182 WAT       -30.9320  -68.9160   -4.3330 O         1 <0>         0.0000
  46183 WAT       -30.9320  -68.9160   -4.0830 O         1 <0>         0.0000
  46184 WAT       -30.9320  -68.9160   -3.8330 O         1 <0>         0.0000
  46185 WAT       -30.9320  -68.9160   -3.5830 O         1 <0>         0.0000
  46186 WAT       -30.9320  -68.9160   -3.3330 O         1 <0>         0.0000
  46187 WAT       -30.9320  -68.9160   -3.0830 O         1 <0>         0.0000
  46188 WAT       -30.9320  -68.9160   -2.8330 O         1 <0>         0.0000
  46189 WAT       -30.9320  -68.9160   -2.5830 O         1 <0>         0.0000
  46190 WAT       -30.9320  -68.9160   -2.3330 O         1 <0>         0.0000
  46191 WAT       -30.9320  -68.9160   -2.0830 O         1 <0>         0.0000
  46192 WAT       -30.9320  -68.9160   -1.8330 O         1 <0>         0.0000
  46193 WAT       -30.9320  -68.9160   -1.5830 O         1 <0>         0.0000
  46194 WAT       -30.9320  -68.9160   -1.3330 O         1 <0>         0.0000
  46195 WAT       -30.9320  -68.9160   -1.0830 O         1 <0>         0.0000
  46196 WAT       -30.9320  -68.9160   -0.8330 O         1 <0>         0.0000
  46197 WAT       -30.9320  -68.9160   -0.5830 O         1 <0>         0.0000
  46198 WAT       -30.9320  -68.9160   -0.3330 O         1 <0>         0.0000
  46199 WAT       -30.9320  -68.9160   -0.0830 O         1 <0>         0.0000
  46200 WAT       -30.6820  -77.4160   -9.8330 O         1 <0>         0.0000
  46201 WAT       -30.6820  -77.4160   -9.5830 O         1 <0>         0.0000
  46202 WAT       -30.6820  -77.4160   -9.3330 O         1 <0>         0.0000
  46203 WAT       -30.6820  -77.4160   -9.0830 O         1 <0>         0.0000
  46204 WAT       -30.6820  -77.4160   -8.8330 O         1 <0>         0.0000
  46205 WAT       -30.6820  -77.4160   -8.5830 O         1 <0>         0.0000
  46206 WAT       -30.6820  -77.4160   -8.3330 O         1 <0>         0.0000
  46207 WAT       -30.6820  -77.4160   -8.0830 O         1 <0>         0.0000
  46208 WAT       -30.6820  -77.4160   -7.8330 O         1 <0>         0.0000
  46209 WAT       -30.6820  -77.4160   -7.5830 O         1 <0>         0.0000
  46210 WAT       -30.6820  -77.4160   -7.3330 O         1 <0>         0.0000
  46211 WAT       -30.6820  -77.4160   -7.0830 O         1 <0>         0.0000
  46212 WAT       -30.6820  -77.4160   -6.8330 O         1 <0>         0.0000
  46213 WAT       -30.6820  -77.4160   -6.5830 O         1 <0>         0.0000
  46214 WAT       -30.6820  -77.4160   -6.3330 O         1 <0>         0.0000
  46215 WAT       -30.6820  -77.4160   -6.0830 O         1 <0>         0.0000
  46216 WAT       -30.6820  -77.4160   -5.8330 O         1 <0>         0.0000
  46217 WAT       -30.6820  -77.4160   -5.5830 O         1 <0>         0.0000
  46218 WAT       -30.6820  -77.4160   -5.3330 O         1 <0>         0.0000
  46219 WAT       -30.6820  -77.4160   -5.0830 O         1 <0>         0.0000
  46220 WAT       -30.6820  -77.4160   -4.8330 O         1 <0>         0.0000
  46221 WAT       -30.6820  -77.4160   -4.5830 O         1 <0>         0.0000
  46222 WAT       -30.6820  -77.4160   -4.3330 O         1 <0>         0.0000
  46223 WAT       -30.6820  -77.4160   -4.0830 O         1 <0>         0.0000
  46224 WAT       -30.6820  -77.4160   -3.8330 O         1 <0>         0.0000
  46225 WAT       -30.6820  -77.4160   -3.5830 O         1 <0>         0.0000
  46226 WAT       -30.6820  -77.4160   -3.3330 O         1 <0>         0.0000
  46227 WAT       -30.6820  -77.4160   -3.0830 O         1 <0>         0.0000
  46228 WAT       -30.6820  -77.4160   -2.8330 O         1 <0>         0.0000
  46229 WAT       -30.6820  -77.4160   -2.5830 O         1 <0>         0.0000
  46230 WAT       -30.6820  -77.4160   -2.3330 O         1 <0>         0.0000
  46231 WAT       -30.6820  -77.4160   -2.0830 O         1 <0>         0.0000
  46232 WAT       -30.6820  -77.4160   -1.8330 O         1 <0>         0.0000
  46233 WAT       -30.6820  -77.4160   -1.5830 O         1 <0>         0.0000
  46234 WAT       -30.6820  -77.4160   -1.3330 O         1 <0>         0.0000
  46235 WAT       -30.6820  -77.4160   -1.0830 O         1 <0>         0.0000
  46236 WAT       -30.6820  -77.4160   -0.8330 O         1 <0>         0.0000
  46237 WAT       -30.6820  -77.4160   -0.5830 O         1 <0>         0.0000
  46238 WAT       -30.6820  -77.4160   -0.3330 O         1 <0>         0.0000
  46239 WAT       -30.6820  -77.4160   -0.0830 O         1 <0>         0.0000
  46240 WAT       -30.6820  -77.1660   -9.8330 O         1 <0>         0.0000
  46241 WAT       -30.6820  -77.1660   -9.5830 O         1 <0>         0.0000
  46242 WAT       -30.6820  -77.1660   -9.3330 O         1 <0>         0.0000
  46243 WAT       -30.6820  -77.1660   -9.0830 O         1 <0>         0.0000
  46244 WAT       -30.6820  -77.1660   -8.8330 O         1 <0>         0.0000
  46245 WAT       -30.6820  -77.1660   -8.5830 O         1 <0>         0.0000
  46246 WAT       -30.6820  -77.1660   -8.3330 O         1 <0>         0.0000
  46247 WAT       -30.6820  -77.1660   -8.0830 O         1 <0>         0.0000
  46248 WAT       -30.6820  -77.1660   -7.8330 O         1 <0>         0.0000
  46249 WAT       -30.6820  -77.1660   -7.5830 O         1 <0>         0.0000
  46250 WAT       -30.6820  -77.1660   -7.3330 O         1 <0>         0.0000
  46251 WAT       -30.6820  -77.1660   -7.0830 O         1 <0>         0.0000
  46252 WAT       -30.6820  -77.1660   -6.8330 O         1 <0>         0.0000
  46253 WAT       -30.6820  -77.1660   -6.5830 O         1 <0>         0.0000
  46254 WAT       -30.6820  -77.1660   -6.3330 O         1 <0>         0.0000
  46255 WAT       -30.6820  -77.1660   -6.0830 O         1 <0>         0.0000
  46256 WAT       -30.6820  -77.1660   -5.8330 O         1 <0>         0.0000
  46257 WAT       -30.6820  -77.1660   -5.5830 O         1 <0>         0.0000
  46258 WAT       -30.6820  -77.1660   -5.3330 O         1 <0>         0.0000
  46259 WAT       -30.6820  -77.1660   -5.0830 O         1 <0>         0.0000
  46260 WAT       -30.6820  -77.1660   -4.8330 O         1 <0>         0.0000
  46261 WAT       -30.6820  -77.1660   -4.5830 O         1 <0>         0.0000
  46262 WAT       -30.6820  -77.1660   -4.3330 O         1 <0>         0.0000
  46263 WAT       -30.6820  -77.1660   -4.0830 O         1 <0>         0.0000
  46264 WAT       -30.6820  -77.1660   -3.8330 O         1 <0>         0.0000
  46265 WAT       -30.6820  -77.1660   -3.5830 O         1 <0>         0.0000
  46266 WAT       -30.6820  -77.1660   -3.3330 O         1 <0>         0.0000
  46267 WAT       -30.6820  -77.1660   -3.0830 O         1 <0>         0.0000
  46268 WAT       -30.6820  -77.1660   -2.8330 O         1 <0>         0.0000
  46269 WAT       -30.6820  -77.1660   -2.5830 O         1 <0>         0.0000
  46270 WAT       -30.6820  -77.1660   -2.3330 O         1 <0>         0.0000
  46271 WAT       -30.6820  -77.1660   -2.0830 O         1 <0>         0.0000
  46272 WAT       -30.6820  -77.1660   -1.8330 O         1 <0>         0.0000
  46273 WAT       -30.6820  -77.1660   -1.5830 O         1 <0>         0.0000
  46274 WAT       -30.6820  -77.1660   -1.3330 O         1 <0>         0.0000
  46275 WAT       -30.6820  -77.1660   -1.0830 O         1 <0>         0.0000
  46276 WAT       -30.6820  -77.1660   -0.8330 O         1 <0>         0.0000
  46277 WAT       -30.6820  -77.1660   -0.5830 O         1 <0>         0.0000
  46278 WAT       -30.6820  -77.1660   -0.3330 O         1 <0>         0.0000
  46279 WAT       -30.6820  -77.1660   -0.0830 O         1 <0>         0.0000
  46280 WAT       -30.6820  -76.9160   -9.8330 O         1 <0>         0.0000
  46281 WAT       -30.6820  -76.9160   -9.5830 O         1 <0>         0.0000
  46282 WAT       -30.6820  -76.9160   -9.3330 O         1 <0>         0.0000
  46283 WAT       -30.6820  -76.9160   -9.0830 O         1 <0>         0.0000
  46284 WAT       -30.6820  -76.9160   -8.8330 O         1 <0>         0.0000
  46285 WAT       -30.6820  -76.9160   -8.5830 O         1 <0>         0.0000
  46286 WAT       -30.6820  -76.9160   -8.3330 O         1 <0>         0.0000
  46287 WAT       -30.6820  -76.9160   -8.0830 O         1 <0>         0.0000
  46288 WAT       -30.6820  -76.9160   -7.8330 O         1 <0>         0.0000
  46289 WAT       -30.6820  -76.9160   -7.5830 O         1 <0>         0.0000
  46290 WAT       -30.6820  -76.9160   -7.3330 O         1 <0>         0.0000
  46291 WAT       -30.6820  -76.9160   -7.0830 O         1 <0>         0.0000
  46292 WAT       -30.6820  -76.9160   -6.8330 O         1 <0>         0.0000
  46293 WAT       -30.6820  -76.9160   -6.5830 O         1 <0>         0.0000
  46294 WAT       -30.6820  -76.9160   -6.3330 O         1 <0>         0.0000
  46295 WAT       -30.6820  -76.9160   -6.0830 O         1 <0>         0.0000
  46296 WAT       -30.6820  -76.9160   -5.8330 O         1 <0>         0.0000
  46297 WAT       -30.6820  -76.9160   -5.5830 O         1 <0>         0.0000
  46298 WAT       -30.6820  -76.9160   -5.3330 O         1 <0>         0.0000
  46299 WAT       -30.6820  -76.9160   -5.0830 O         1 <0>         0.0000
  46300 WAT       -30.6820  -76.9160   -4.8330 O         1 <0>         0.0000
  46301 WAT       -30.6820  -76.9160   -4.5830 O         1 <0>         0.0000
  46302 WAT       -30.6820  -76.9160   -4.3330 O         1 <0>         0.0000
  46303 WAT       -30.6820  -76.9160   -4.0830 O         1 <0>         0.0000
  46304 WAT       -30.6820  -76.9160   -3.8330 O         1 <0>         0.0000
  46305 WAT       -30.6820  -76.9160   -3.5830 O         1 <0>         0.0000
  46306 WAT       -30.6820  -76.9160   -3.3330 O         1 <0>         0.0000
  46307 WAT       -30.6820  -76.9160   -3.0830 O         1 <0>         0.0000
  46308 WAT       -30.6820  -76.9160   -2.8330 O         1 <0>         0.0000
  46309 WAT       -30.6820  -76.9160   -2.5830 O         1 <0>         0.0000
  46310 WAT       -30.6820  -76.9160   -2.3330 O         1 <0>         0.0000
  46311 WAT       -30.6820  -76.9160   -2.0830 O         1 <0>         0.0000
  46312 WAT       -30.6820  -76.9160   -1.8330 O         1 <0>         0.0000
  46313 WAT       -30.6820  -76.9160   -1.5830 O         1 <0>         0.0000
  46314 WAT       -30.6820  -76.9160   -1.3330 O         1 <0>         0.0000
  46315 WAT       -30.6820  -76.9160   -1.0830 O         1 <0>         0.0000
  46316 WAT       -30.6820  -76.9160   -0.8330 O         1 <0>         0.0000
  46317 WAT       -30.6820  -76.9160   -0.5830 O         1 <0>         0.0000
  46318 WAT       -30.6820  -76.9160   -0.3330 O         1 <0>         0.0000
  46319 WAT       -30.6820  -76.9160   -0.0830 O         1 <0>         0.0000
  46320 WAT       -30.6820  -76.6660   -9.8330 O         1 <0>         0.0000
  46321 WAT       -30.6820  -76.6660   -9.5830 O         1 <0>         0.0000
  46322 WAT       -30.6820  -76.6660   -9.3330 O         1 <0>         0.0000
  46323 WAT       -30.6820  -76.6660   -9.0830 O         1 <0>         0.0000
  46324 WAT       -30.6820  -76.6660   -8.8330 O         1 <0>         0.0000
  46325 WAT       -30.6820  -76.6660   -8.5830 O         1 <0>         0.0000
  46326 WAT       -30.6820  -76.6660   -8.3330 O         1 <0>         0.0000
  46327 WAT       -30.6820  -76.6660   -8.0830 O         1 <0>         0.0000
  46328 WAT       -30.6820  -76.6660   -7.8330 O         1 <0>         0.0000
  46329 WAT       -30.6820  -76.6660   -7.5830 O         1 <0>         0.0000
  46330 WAT       -30.6820  -76.6660   -7.3330 O         1 <0>         0.0000
  46331 WAT       -30.6820  -76.6660   -7.0830 O         1 <0>         0.0000
  46332 WAT       -30.6820  -76.6660   -6.8330 O         1 <0>         0.0000
  46333 WAT       -30.6820  -76.6660   -6.5830 O         1 <0>         0.0000
  46334 WAT       -30.6820  -76.6660   -6.3330 O         1 <0>         0.0000
  46335 WAT       -30.6820  -76.6660   -6.0830 O         1 <0>         0.0000
  46336 WAT       -30.6820  -76.6660   -5.8330 O         1 <0>         0.0000
  46337 WAT       -30.6820  -76.6660   -5.5830 O         1 <0>         0.0000
  46338 WAT       -30.6820  -76.6660   -5.3330 O         1 <0>         0.0000
  46339 WAT       -30.6820  -76.6660   -5.0830 O         1 <0>         0.0000
  46340 WAT       -30.6820  -76.6660   -4.8330 O         1 <0>         0.0000
  46341 WAT       -30.6820  -76.6660   -4.5830 O         1 <0>         0.0000
  46342 WAT       -30.6820  -76.6660   -4.3330 O         1 <0>         0.0000
  46343 WAT       -30.6820  -76.6660   -4.0830 O         1 <0>         0.0000
  46344 WAT       -30.6820  -76.6660   -3.8330 O         1 <0>         0.0000
  46345 WAT       -30.6820  -76.6660   -3.5830 O         1 <0>         0.0000
  46346 WAT       -30.6820  -76.6660   -3.3330 O         1 <0>         0.0000
  46347 WAT       -30.6820  -76.6660   -3.0830 O         1 <0>         0.0000
  46348 WAT       -30.6820  -76.6660   -2.8330 O         1 <0>         0.0000
  46349 WAT       -30.6820  -76.6660   -2.5830 O         1 <0>         0.0000
  46350 WAT       -30.6820  -76.6660   -2.3330 O         1 <0>         0.0000
  46351 WAT       -30.6820  -76.6660   -2.0830 O         1 <0>         0.0000
  46352 WAT       -30.6820  -76.6660   -1.8330 O         1 <0>         0.0000
  46353 WAT       -30.6820  -76.6660   -1.5830 O         1 <0>         0.0000
  46354 WAT       -30.6820  -76.6660   -1.3330 O         1 <0>         0.0000
  46355 WAT       -30.6820  -76.6660   -1.0830 O         1 <0>         0.0000
  46356 WAT       -30.6820  -76.6660   -0.8330 O         1 <0>         0.0000
  46357 WAT       -30.6820  -76.6660   -0.5830 O         1 <0>         0.0000
  46358 WAT       -30.6820  -76.6660   -0.3330 O         1 <0>         0.0000
  46359 WAT       -30.6820  -76.6660   -0.0830 O         1 <0>         0.0000
  46360 WAT       -30.6820  -76.4160   -9.8330 O         1 <0>         0.0000
  46361 WAT       -30.6820  -76.4160   -9.5830 O         1 <0>         0.0000
  46362 WAT       -30.6820  -76.4160   -9.3330 O         1 <0>         0.0000
  46363 WAT       -30.6820  -76.4160   -9.0830 O         1 <0>         0.0000
  46364 WAT       -30.6820  -76.4160   -8.8330 O         1 <0>         0.0000
  46365 WAT       -30.6820  -76.4160   -8.5830 O         1 <0>         0.0000
  46366 WAT       -30.6820  -76.4160   -8.3330 O         1 <0>         0.0000
  46367 WAT       -30.6820  -76.4160   -8.0830 O         1 <0>         0.0000
  46368 WAT       -30.6820  -76.4160   -7.8330 O         1 <0>         0.0000
  46369 WAT       -30.6820  -76.4160   -7.5830 O         1 <0>         0.0000
  46370 WAT       -30.6820  -76.4160   -7.3330 O         1 <0>         0.0000
  46371 WAT       -30.6820  -76.4160   -7.0830 O         1 <0>         0.0000
  46372 WAT       -30.6820  -76.4160   -6.8330 O         1 <0>         0.0000
  46373 WAT       -30.6820  -76.4160   -6.5830 O         1 <0>         0.0000
  46374 WAT       -30.6820  -76.4160   -6.3330 O         1 <0>         0.0000
  46375 WAT       -30.6820  -76.4160   -6.0830 O         1 <0>         0.0000
  46376 WAT       -30.6820  -76.4160   -5.8330 O         1 <0>         0.0000
  46377 WAT       -30.6820  -76.4160   -5.5830 O         1 <0>         0.0000
  46378 WAT       -30.6820  -76.4160   -5.3330 O         1 <0>         0.0000
  46379 WAT       -30.6820  -76.4160   -5.0830 O         1 <0>         0.0000
  46380 WAT       -30.6820  -76.4160   -4.8330 O         1 <0>         0.0000
  46381 WAT       -30.6820  -76.4160   -4.5830 O         1 <0>         0.0000
  46382 WAT       -30.6820  -76.4160   -4.3330 O         1 <0>         0.0000
  46383 WAT       -30.6820  -76.4160   -4.0830 O         1 <0>         0.0000
  46384 WAT       -30.6820  -76.4160   -3.8330 O         1 <0>         0.0000
  46385 WAT       -30.6820  -76.4160   -3.5830 O         1 <0>         0.0000
  46386 WAT       -30.6820  -76.4160   -3.3330 O         1 <0>         0.0000
  46387 WAT       -30.6820  -76.4160   -3.0830 O         1 <0>         0.0000
  46388 WAT       -30.6820  -76.4160   -2.8330 O         1 <0>         0.0000
  46389 WAT       -30.6820  -76.4160   -2.5830 O         1 <0>         0.0000
  46390 WAT       -30.6820  -76.4160   -2.3330 O         1 <0>         0.0000
  46391 WAT       -30.6820  -76.4160   -2.0830 O         1 <0>         0.0000
  46392 WAT       -30.6820  -76.4160   -1.8330 O         1 <0>         0.0000
  46393 WAT       -30.6820  -76.4160   -1.5830 O         1 <0>         0.0000
  46394 WAT       -30.6820  -76.4160   -1.3330 O         1 <0>         0.0000
  46395 WAT       -30.6820  -76.4160   -1.0830 O         1 <0>         0.0000
  46396 WAT       -30.6820  -76.4160   -0.8330 O         1 <0>         0.0000
  46397 WAT       -30.6820  -76.4160   -0.5830 O         1 <0>         0.0000
  46398 WAT       -30.6820  -76.4160   -0.3330 O         1 <0>         0.0000
  46399 WAT       -30.6820  -76.4160   -0.0830 O         1 <0>         0.0000
  46400 WAT       -30.6820  -76.1660   -9.8330 O         1 <0>         0.0000
  46401 WAT       -30.6820  -76.1660   -9.5830 O         1 <0>         0.0000
  46402 WAT       -30.6820  -76.1660   -9.3330 O         1 <0>         0.0000
  46403 WAT       -30.6820  -76.1660   -9.0830 O         1 <0>         0.0000
  46404 WAT       -30.6820  -76.1660   -8.8330 O         1 <0>         0.0000
  46405 WAT       -30.6820  -76.1660   -8.5830 O         1 <0>         0.0000
  46406 WAT       -30.6820  -76.1660   -8.3330 O         1 <0>         0.0000
  46407 WAT       -30.6820  -76.1660   -8.0830 O         1 <0>         0.0000
  46408 WAT       -30.6820  -76.1660   -7.8330 O         1 <0>         0.0000
  46409 WAT       -30.6820  -76.1660   -7.5830 O         1 <0>         0.0000
  46410 WAT       -30.6820  -76.1660   -7.3330 O         1 <0>         0.0000
  46411 WAT       -30.6820  -76.1660   -7.0830 O         1 <0>         0.0000
  46412 WAT       -30.6820  -76.1660   -6.8330 O         1 <0>         0.0000
  46413 WAT       -30.6820  -76.1660   -6.5830 O         1 <0>         0.0000
  46414 WAT       -30.6820  -76.1660   -6.3330 O         1 <0>         0.0000
  46415 WAT       -30.6820  -76.1660   -6.0830 O         1 <0>         0.0000
  46416 WAT       -30.6820  -76.1660   -5.8330 O         1 <0>         0.0000
  46417 WAT       -30.6820  -76.1660   -5.5830 O         1 <0>         0.0000
  46418 WAT       -30.6820  -76.1660   -5.3330 O         1 <0>         0.0000
  46419 WAT       -30.6820  -76.1660   -5.0830 O         1 <0>         0.0000
  46420 WAT       -30.6820  -76.1660   -4.8330 O         1 <0>         0.0000
  46421 WAT       -30.6820  -76.1660   -4.5830 O         1 <0>         0.0000
  46422 WAT       -30.6820  -76.1660   -4.3330 O         1 <0>         0.0000
  46423 WAT       -30.6820  -76.1660   -4.0830 O         1 <0>         0.0000
  46424 WAT       -30.6820  -76.1660   -3.8330 O         1 <0>         0.0000
  46425 WAT       -30.6820  -76.1660   -3.5830 O         1 <0>         0.0000
  46426 WAT       -30.6820  -76.1660   -3.3330 O         1 <0>         0.0000
  46427 WAT       -30.6820  -76.1660   -3.0830 O         1 <0>         0.0000
  46428 WAT       -30.6820  -76.1660   -2.8330 O         1 <0>         0.0000
  46429 WAT       -30.6820  -76.1660   -2.5830 O         1 <0>         0.0000
  46430 WAT       -30.6820  -76.1660   -2.3330 O         1 <0>         0.0000
  46431 WAT       -30.6820  -76.1660   -2.0830 O         1 <0>         0.0000
  46432 WAT       -30.6820  -76.1660   -1.8330 O         1 <0>         0.0000
  46433 WAT       -30.6820  -76.1660   -1.5830 O         1 <0>         0.0000
  46434 WAT       -30.6820  -76.1660   -1.3330 O         1 <0>         0.0000
  46435 WAT       -30.6820  -76.1660   -1.0830 O         1 <0>         0.0000
  46436 WAT       -30.6820  -76.1660   -0.8330 O         1 <0>         0.0000
  46437 WAT       -30.6820  -76.1660   -0.5830 O         1 <0>         0.0000
  46438 WAT       -30.6820  -76.1660   -0.3330 O         1 <0>         0.0000
  46439 WAT       -30.6820  -76.1660   -0.0830 O         1 <0>         0.0000
  46440 WAT       -30.6820  -75.9160   -9.8330 O         1 <0>         0.0000
  46441 WAT       -30.6820  -75.9160   -9.5830 O         1 <0>         0.0000
  46442 WAT       -30.6820  -75.9160   -9.3330 O         1 <0>         0.0000
  46443 WAT       -30.6820  -75.9160   -9.0830 O         1 <0>         0.0000
  46444 WAT       -30.6820  -75.9160   -8.8330 O         1 <0>         0.0000
  46445 WAT       -30.6820  -75.9160   -8.5830 O         1 <0>         0.0000
  46446 WAT       -30.6820  -75.9160   -8.3330 O         1 <0>         0.0000
  46447 WAT       -30.6820  -75.9160   -8.0830 O         1 <0>         0.0000
  46448 WAT       -30.6820  -75.9160   -7.8330 O         1 <0>         0.0000
  46449 WAT       -30.6820  -75.9160   -7.5830 O         1 <0>         0.0000
  46450 WAT       -30.6820  -75.9160   -7.3330 O         1 <0>         0.0000
  46451 WAT       -30.6820  -75.9160   -7.0830 O         1 <0>         0.0000
  46452 WAT       -30.6820  -75.9160   -6.8330 O         1 <0>         0.0000
  46453 WAT       -30.6820  -75.9160   -6.5830 O         1 <0>         0.0000
  46454 WAT       -30.6820  -75.9160   -6.3330 O         1 <0>         0.0000
  46455 WAT       -30.6820  -75.9160   -6.0830 O         1 <0>         0.0000
  46456 WAT       -30.6820  -75.9160   -5.8330 O         1 <0>         0.0000
  46457 WAT       -30.6820  -75.9160   -5.5830 O         1 <0>         0.0000
  46458 WAT       -30.6820  -75.9160   -5.3330 O         1 <0>         0.0000
  46459 WAT       -30.6820  -75.9160   -5.0830 O         1 <0>         0.0000
  46460 WAT       -30.6820  -75.9160   -4.8330 O         1 <0>         0.0000
  46461 WAT       -30.6820  -75.9160   -4.5830 O         1 <0>         0.0000
  46462 WAT       -30.6820  -75.9160   -4.3330 O         1 <0>         0.0000
  46463 WAT       -30.6820  -75.9160   -4.0830 O         1 <0>         0.0000
  46464 WAT       -30.6820  -75.9160   -3.8330 O         1 <0>         0.0000
  46465 WAT       -30.6820  -75.9160   -3.5830 O         1 <0>         0.0000
  46466 WAT       -30.6820  -75.9160   -3.3330 O         1 <0>         0.0000
  46467 WAT       -30.6820  -75.9160   -3.0830 O         1 <0>         0.0000
  46468 WAT       -30.6820  -75.9160   -2.8330 O         1 <0>         0.0000
  46469 WAT       -30.6820  -75.9160   -2.5830 O         1 <0>         0.0000
  46470 WAT       -30.6820  -75.9160   -2.3330 O         1 <0>         0.0000
  46471 WAT       -30.6820  -75.9160   -2.0830 O         1 <0>         0.0000
  46472 WAT       -30.6820  -75.9160   -1.8330 O         1 <0>         0.0000
  46473 WAT       -30.6820  -75.9160   -1.5830 O         1 <0>         0.0000
  46474 WAT       -30.6820  -75.9160   -1.3330 O         1 <0>         0.0000
  46475 WAT       -30.6820  -75.9160   -1.0830 O         1 <0>         0.0000
  46476 WAT       -30.6820  -75.9160   -0.8330 O         1 <0>         0.0000
  46477 WAT       -30.6820  -75.9160   -0.5830 O         1 <0>         0.0000
  46478 WAT       -30.6820  -75.9160   -0.3330 O         1 <0>         0.0000
  46479 WAT       -30.6820  -75.9160   -0.0830 O         1 <0>         0.0000
  46480 WAT       -30.6820  -75.6660   -9.8330 O         1 <0>         0.0000
  46481 WAT       -30.6820  -75.6660   -9.5830 O         1 <0>         0.0000
  46482 WAT       -30.6820  -75.6660   -9.3330 O         1 <0>         0.0000
  46483 WAT       -30.6820  -75.6660   -9.0830 O         1 <0>         0.0000
  46484 WAT       -30.6820  -75.6660   -8.8330 O         1 <0>         0.0000
  46485 WAT       -30.6820  -75.6660   -8.5830 O         1 <0>         0.0000
  46486 WAT       -30.6820  -75.6660   -8.3330 O         1 <0>         0.0000
  46487 WAT       -30.6820  -75.6660   -8.0830 O         1 <0>         0.0000
  46488 WAT       -30.6820  -75.6660   -7.8330 O         1 <0>         0.0000
  46489 WAT       -30.6820  -75.6660   -7.5830 O         1 <0>         0.0000
  46490 WAT       -30.6820  -75.6660   -7.3330 O         1 <0>         0.0000
  46491 WAT       -30.6820  -75.6660   -7.0830 O         1 <0>         0.0000
  46492 WAT       -30.6820  -75.6660   -6.8330 O         1 <0>         0.0000
  46493 WAT       -30.6820  -75.6660   -6.5830 O         1 <0>         0.0000
  46494 WAT       -30.6820  -75.6660   -6.3330 O         1 <0>         0.0000
  46495 WAT       -30.6820  -75.6660   -6.0830 O         1 <0>         0.0000
  46496 WAT       -30.6820  -75.6660   -5.8330 O         1 <0>         0.0000
  46497 WAT       -30.6820  -75.6660   -5.5830 O         1 <0>         0.0000
  46498 WAT       -30.6820  -75.6660   -5.3330 O         1 <0>         0.0000
  46499 WAT       -30.6820  -75.6660   -5.0830 O         1 <0>         0.0000
  46500 WAT       -30.6820  -75.6660   -4.8330 O         1 <0>         0.0000
  46501 WAT       -30.6820  -75.6660   -4.5830 O         1 <0>         0.0000
  46502 WAT       -30.6820  -75.6660   -4.3330 O         1 <0>         0.0000
  46503 WAT       -30.6820  -75.6660   -4.0830 O         1 <0>         0.0000
  46504 WAT       -30.6820  -75.6660   -3.8330 O         1 <0>         0.0000
  46505 WAT       -30.6820  -75.6660   -3.5830 O         1 <0>         0.0000
  46506 WAT       -30.6820  -75.6660   -3.3330 O         1 <0>         0.0000
  46507 WAT       -30.6820  -75.6660   -3.0830 O         1 <0>         0.0000
  46508 WAT       -30.6820  -75.6660   -2.8330 O         1 <0>         0.0000
  46509 WAT       -30.6820  -75.6660   -2.5830 O         1 <0>         0.0000
  46510 WAT       -30.6820  -75.6660   -2.3330 O         1 <0>         0.0000
  46511 WAT       -30.6820  -75.6660   -2.0830 O         1 <0>         0.0000
  46512 WAT       -30.6820  -75.6660   -1.8330 O         1 <0>         0.0000
  46513 WAT       -30.6820  -75.6660   -1.5830 O         1 <0>         0.0000
  46514 WAT       -30.6820  -75.6660   -1.3330 O         1 <0>         0.0000
  46515 WAT       -30.6820  -75.6660   -1.0830 O         1 <0>         0.0000
  46516 WAT       -30.6820  -75.6660   -0.8330 O         1 <0>         0.0000
  46517 WAT       -30.6820  -75.6660   -0.5830 O         1 <0>         0.0000
  46518 WAT       -30.6820  -75.6660   -0.3330 O         1 <0>         0.0000
  46519 WAT       -30.6820  -75.6660   -0.0830 O         1 <0>         0.0000
  46520 WAT       -30.6820  -75.4160   -9.8330 O         1 <0>         0.0000
  46521 WAT       -30.6820  -75.4160   -9.5830 O         1 <0>         0.0000
  46522 WAT       -30.6820  -75.4160   -9.3330 O         1 <0>         0.0000
  46523 WAT       -30.6820  -75.4160   -9.0830 O         1 <0>         0.0000
  46524 WAT       -30.6820  -75.4160   -8.8330 O         1 <0>         0.0000
  46525 WAT       -30.6820  -75.4160   -8.5830 O         1 <0>         0.0000
  46526 WAT       -30.6820  -75.4160   -8.3330 O         1 <0>         0.0000
  46527 WAT       -30.6820  -75.4160   -8.0830 O         1 <0>         0.0000
  46528 WAT       -30.6820  -75.4160   -7.8330 O         1 <0>         0.0000
  46529 WAT       -30.6820  -75.4160   -7.5830 O         1 <0>         0.0000
  46530 WAT       -30.6820  -75.4160   -7.3330 O         1 <0>         0.0000
  46531 WAT       -30.6820  -75.4160   -7.0830 O         1 <0>         0.0000
  46532 WAT       -30.6820  -75.4160   -6.8330 O         1 <0>         0.0000
  46533 WAT       -30.6820  -75.4160   -6.5830 O         1 <0>         0.0000
  46534 WAT       -30.6820  -75.4160   -6.3330 O         1 <0>         0.0000
  46535 WAT       -30.6820  -75.4160   -6.0830 O         1 <0>         0.0000
  46536 WAT       -30.6820  -75.4160   -5.8330 O         1 <0>         0.0000
  46537 WAT       -30.6820  -75.4160   -5.5830 O         1 <0>         0.0000
  46538 WAT       -30.6820  -75.4160   -5.3330 O         1 <0>         0.0000
  46539 WAT       -30.6820  -75.4160   -5.0830 O         1 <0>         0.0000
  46540 WAT       -30.6820  -75.4160   -4.8330 O         1 <0>         0.0000
  46541 WAT       -30.6820  -75.4160   -4.5830 O         1 <0>         0.0000
  46542 WAT       -30.6820  -75.4160   -4.3330 O         1 <0>         0.0000
  46543 WAT       -30.6820  -75.4160   -4.0830 O         1 <0>         0.0000
  46544 WAT       -30.6820  -75.4160   -3.8330 O         1 <0>         0.0000
  46545 WAT       -30.6820  -75.4160   -3.5830 O         1 <0>         0.0000
  46546 WAT       -30.6820  -75.4160   -3.3330 O         1 <0>         0.0000
  46547 WAT       -30.6820  -75.4160   -3.0830 O         1 <0>         0.0000
  46548 WAT       -30.6820  -75.4160   -2.8330 O         1 <0>         0.0000
  46549 WAT       -30.6820  -75.4160   -2.5830 O         1 <0>         0.0000
  46550 WAT       -30.6820  -75.4160   -2.3330 O         1 <0>         0.0000
  46551 WAT       -30.6820  -75.4160   -2.0830 O         1 <0>         0.0000
  46552 WAT       -30.6820  -75.4160   -1.8330 O         1 <0>         0.0000
  46553 WAT       -30.6820  -75.4160   -1.5830 O         1 <0>         0.0000
  46554 WAT       -30.6820  -75.4160   -1.3330 O         1 <0>         0.0000
  46555 WAT       -30.6820  -75.4160   -1.0830 O         1 <0>         0.0000
  46556 WAT       -30.6820  -75.4160   -0.8330 O         1 <0>         0.0000
  46557 WAT       -30.6820  -75.4160   -0.5830 O         1 <0>         0.0000
  46558 WAT       -30.6820  -75.4160   -0.3330 O         1 <0>         0.0000
  46559 WAT       -30.6820  -75.4160   -0.0830 O         1 <0>         0.0000
  46560 WAT       -30.6820  -75.1660   -9.8330 O         1 <0>         0.0000
  46561 WAT       -30.6820  -75.1660   -9.5830 O         1 <0>         0.0000
  46562 WAT       -30.6820  -75.1660   -9.3330 O         1 <0>         0.0000
  46563 WAT       -30.6820  -75.1660   -9.0830 O         1 <0>         0.0000
  46564 WAT       -30.6820  -75.1660   -8.8330 O         1 <0>         0.0000
  46565 WAT       -30.6820  -75.1660   -8.5830 O         1 <0>         0.0000
  46566 WAT       -30.6820  -75.1660   -8.3330 O         1 <0>         0.0000
  46567 WAT       -30.6820  -75.1660   -8.0830 O         1 <0>         0.0000
  46568 WAT       -30.6820  -75.1660   -7.8330 O         1 <0>         0.0000
  46569 WAT       -30.6820  -75.1660   -7.5830 O         1 <0>         0.0000
  46570 WAT       -30.6820  -75.1660   -7.3330 O         1 <0>         0.0000
  46571 WAT       -30.6820  -75.1660   -7.0830 O         1 <0>         0.0000
  46572 WAT       -30.6820  -75.1660   -6.8330 O         1 <0>         0.0000
  46573 WAT       -30.6820  -75.1660   -6.5830 O         1 <0>         0.0000
  46574 WAT       -30.6820  -75.1660   -6.3330 O         1 <0>         0.0000
  46575 WAT       -30.6820  -75.1660   -6.0830 O         1 <0>         0.0000
  46576 WAT       -30.6820  -75.1660   -5.8330 O         1 <0>         0.0000
  46577 WAT       -30.6820  -75.1660   -5.5830 O         1 <0>         0.0000
  46578 WAT       -30.6820  -75.1660   -5.3330 O         1 <0>         0.0000
  46579 WAT       -30.6820  -75.1660   -5.0830 O         1 <0>         0.0000
  46580 WAT       -30.6820  -75.1660   -4.8330 O         1 <0>         0.0000
  46581 WAT       -30.6820  -75.1660   -4.5830 O         1 <0>         0.0000
  46582 WAT       -30.6820  -75.1660   -4.3330 O         1 <0>         0.0000
  46583 WAT       -30.6820  -75.1660   -4.0830 O         1 <0>         0.0000
  46584 WAT       -30.6820  -75.1660   -3.8330 O         1 <0>         0.0000
  46585 WAT       -30.6820  -75.1660   -3.5830 O         1 <0>         0.0000
  46586 WAT       -30.6820  -75.1660   -3.3330 O         1 <0>         0.0000
  46587 WAT       -30.6820  -75.1660   -3.0830 O         1 <0>         0.0000
  46588 WAT       -30.6820  -75.1660   -2.8330 O         1 <0>         0.0000
  46589 WAT       -30.6820  -75.1660   -2.5830 O         1 <0>         0.0000
  46590 WAT       -30.6820  -75.1660   -2.3330 O         1 <0>         0.0000
  46591 WAT       -30.6820  -75.1660   -2.0830 O         1 <0>         0.0000
  46592 WAT       -30.6820  -75.1660   -1.8330 O         1 <0>         0.0000
  46593 WAT       -30.6820  -75.1660   -1.5830 O         1 <0>         0.0000
  46594 WAT       -30.6820  -75.1660   -1.3330 O         1 <0>         0.0000
  46595 WAT       -30.6820  -75.1660   -1.0830 O         1 <0>         0.0000
  46596 WAT       -30.6820  -75.1660   -0.8330 O         1 <0>         0.0000
  46597 WAT       -30.6820  -75.1660   -0.5830 O         1 <0>         0.0000
  46598 WAT       -30.6820  -75.1660   -0.3330 O         1 <0>         0.0000
  46599 WAT       -30.6820  -75.1660   -0.0830 O         1 <0>         0.0000
  46600 WAT       -30.6820  -74.9160   -9.8330 O         1 <0>         0.0000
  46601 WAT       -30.6820  -74.9160   -9.5830 O         1 <0>         0.0000
  46602 WAT       -30.6820  -74.9160   -9.3330 O         1 <0>         0.0000
  46603 WAT       -30.6820  -74.9160   -9.0830 O         1 <0>         0.0000
  46604 WAT       -30.6820  -74.9160   -8.8330 O         1 <0>         0.0000
  46605 WAT       -30.6820  -74.9160   -8.5830 O         1 <0>         0.0000
  46606 WAT       -30.6820  -74.9160   -8.3330 O         1 <0>         0.0000
  46607 WAT       -30.6820  -74.9160   -8.0830 O         1 <0>         0.0000
  46608 WAT       -30.6820  -74.9160   -7.8330 O         1 <0>         0.0000
  46609 WAT       -30.6820  -74.9160   -7.5830 O         1 <0>         0.0000
  46610 WAT       -30.6820  -74.9160   -7.3330 O         1 <0>         0.0000
  46611 WAT       -30.6820  -74.9160   -7.0830 O         1 <0>         0.0000
  46612 WAT       -30.6820  -74.9160   -6.8330 O         1 <0>         0.0000
  46613 WAT       -30.6820  -74.9160   -6.5830 O         1 <0>         0.0000
  46614 WAT       -30.6820  -74.9160   -6.3330 O         1 <0>         0.0000
  46615 WAT       -30.6820  -74.9160   -6.0830 O         1 <0>         0.0000
  46616 WAT       -30.6820  -74.9160   -5.8330 O         1 <0>         0.0000
  46617 WAT       -30.6820  -74.9160   -5.5830 O         1 <0>         0.0000
  46618 WAT       -30.6820  -74.9160   -5.3330 O         1 <0>         0.0000
  46619 WAT       -30.6820  -74.9160   -5.0830 O         1 <0>         0.0000
  46620 WAT       -30.6820  -74.9160   -4.8330 O         1 <0>         0.0000
  46621 WAT       -30.6820  -74.9160   -4.5830 O         1 <0>         0.0000
  46622 WAT       -30.6820  -74.9160   -4.3330 O         1 <0>         0.0000
  46623 WAT       -30.6820  -74.9160   -4.0830 O         1 <0>         0.0000
  46624 WAT       -30.6820  -74.9160   -3.8330 O         1 <0>         0.0000
  46625 WAT       -30.6820  -74.9160   -3.5830 O         1 <0>         0.0000
  46626 WAT       -30.6820  -74.9160   -3.3330 O         1 <0>         0.0000
  46627 WAT       -30.6820  -74.9160   -3.0830 O         1 <0>         0.0000
  46628 WAT       -30.6820  -74.9160   -2.8330 O         1 <0>         0.0000
  46629 WAT       -30.6820  -74.9160   -2.5830 O         1 <0>         0.0000
  46630 WAT       -30.6820  -74.9160   -2.3330 O         1 <0>         0.0000
  46631 WAT       -30.6820  -74.9160   -2.0830 O         1 <0>         0.0000
  46632 WAT       -30.6820  -74.9160   -1.8330 O         1 <0>         0.0000
  46633 WAT       -30.6820  -74.9160   -1.5830 O         1 <0>         0.0000
  46634 WAT       -30.6820  -74.9160   -1.3330 O         1 <0>         0.0000
  46635 WAT       -30.6820  -74.9160   -1.0830 O         1 <0>         0.0000
  46636 WAT       -30.6820  -74.9160   -0.8330 O         1 <0>         0.0000
  46637 WAT       -30.6820  -74.9160   -0.5830 O         1 <0>         0.0000
  46638 WAT       -30.6820  -74.9160   -0.3330 O         1 <0>         0.0000
  46639 WAT       -30.6820  -74.9160   -0.0830 O         1 <0>         0.0000
  46640 WAT       -30.6820  -74.6660   -9.8330 O         1 <0>         0.0000
  46641 WAT       -30.6820  -74.6660   -9.5830 O         1 <0>         0.0000
  46642 WAT       -30.6820  -74.6660   -9.3330 O         1 <0>         0.0000
  46643 WAT       -30.6820  -74.6660   -9.0830 O         1 <0>         0.0000
  46644 WAT       -30.6820  -74.6660   -8.8330 O         1 <0>         0.0000
  46645 WAT       -30.6820  -74.6660   -8.5830 O         1 <0>         0.0000
  46646 WAT       -30.6820  -74.6660   -8.3330 O         1 <0>         0.0000
  46647 WAT       -30.6820  -74.6660   -8.0830 O         1 <0>         0.0000
  46648 WAT       -30.6820  -74.6660   -7.8330 O         1 <0>         0.0000
  46649 WAT       -30.6820  -74.6660   -7.5830 O         1 <0>         0.0000
  46650 WAT       -30.6820  -74.6660   -7.3330 O         1 <0>         0.0000
  46651 WAT       -30.6820  -74.6660   -7.0830 O         1 <0>         0.0000
  46652 WAT       -30.6820  -74.6660   -6.8330 O         1 <0>         0.0000
  46653 WAT       -30.6820  -74.6660   -6.5830 O         1 <0>         0.0000
  46654 WAT       -30.6820  -74.6660   -6.3330 O         1 <0>         0.0000
  46655 WAT       -30.6820  -74.6660   -6.0830 O         1 <0>         0.0000
  46656 WAT       -30.6820  -74.6660   -5.8330 O         1 <0>         0.0000
  46657 WAT       -30.6820  -74.6660   -5.5830 O         1 <0>         0.0000
  46658 WAT       -30.6820  -74.6660   -5.3330 O         1 <0>         0.0000
  46659 WAT       -30.6820  -74.6660   -5.0830 O         1 <0>         0.0000
  46660 WAT       -30.6820  -74.6660   -4.8330 O         1 <0>         0.0000
  46661 WAT       -30.6820  -74.6660   -4.5830 O         1 <0>         0.0000
  46662 WAT       -30.6820  -74.6660   -4.3330 O         1 <0>         0.0000
  46663 WAT       -30.6820  -74.6660   -4.0830 O         1 <0>         0.0000
  46664 WAT       -30.6820  -74.6660   -3.8330 O         1 <0>         0.0000
  46665 WAT       -30.6820  -74.6660   -3.5830 O         1 <0>         0.0000
  46666 WAT       -30.6820  -74.6660   -3.3330 O         1 <0>         0.0000
  46667 WAT       -30.6820  -74.6660   -3.0830 O         1 <0>         0.0000
  46668 WAT       -30.6820  -74.6660   -2.8330 O         1 <0>         0.0000
  46669 WAT       -30.6820  -74.6660   -2.5830 O         1 <0>         0.0000
  46670 WAT       -30.6820  -74.6660   -2.3330 O         1 <0>         0.0000
  46671 WAT       -30.6820  -74.6660   -2.0830 O         1 <0>         0.0000
  46672 WAT       -30.6820  -74.6660   -1.8330 O         1 <0>         0.0000
  46673 WAT       -30.6820  -74.6660   -1.5830 O         1 <0>         0.0000
  46674 WAT       -30.6820  -74.6660   -1.3330 O         1 <0>         0.0000
  46675 WAT       -30.6820  -74.6660   -1.0830 O         1 <0>         0.0000
  46676 WAT       -30.6820  -74.6660   -0.8330 O         1 <0>         0.0000
  46677 WAT       -30.6820  -74.6660   -0.5830 O         1 <0>         0.0000
  46678 WAT       -30.6820  -74.6660   -0.3330 O         1 <0>         0.0000
  46679 WAT       -30.6820  -74.6660   -0.0830 O         1 <0>         0.0000
  46680 WAT       -30.6820  -74.4160   -9.8330 O         1 <0>         0.0000
  46681 WAT       -30.6820  -74.4160   -9.5830 O         1 <0>         0.0000
  46682 WAT       -30.6820  -74.4160   -9.3330 O         1 <0>         0.0000
  46683 WAT       -30.6820  -74.4160   -9.0830 O         1 <0>         0.0000
  46684 WAT       -30.6820  -74.4160   -8.8330 O         1 <0>         0.0000
  46685 WAT       -30.6820  -74.4160   -8.5830 O         1 <0>         0.0000
  46686 WAT       -30.6820  -74.4160   -8.3330 O         1 <0>         0.0000
  46687 WAT       -30.6820  -74.4160   -8.0830 O         1 <0>         0.0000
  46688 WAT       -30.6820  -74.4160   -7.8330 O         1 <0>         0.0000
  46689 WAT       -30.6820  -74.4160   -7.5830 O         1 <0>         0.0000
  46690 WAT       -30.6820  -74.4160   -7.3330 O         1 <0>         0.0000
  46691 WAT       -30.6820  -74.4160   -7.0830 O         1 <0>         0.0000
  46692 WAT       -30.6820  -74.4160   -6.8330 O         1 <0>         0.0000
  46693 WAT       -30.6820  -74.4160   -6.5830 O         1 <0>         0.0000
  46694 WAT       -30.6820  -74.4160   -6.3330 O         1 <0>         0.0000
  46695 WAT       -30.6820  -74.4160   -6.0830 O         1 <0>         0.0000
  46696 WAT       -30.6820  -74.4160   -5.8330 O         1 <0>         0.0000
  46697 WAT       -30.6820  -74.4160   -5.5830 O         1 <0>         0.0000
  46698 WAT       -30.6820  -74.4160   -5.3330 O         1 <0>         0.0000
  46699 WAT       -30.6820  -74.4160   -5.0830 O         1 <0>         0.0000
  46700 WAT       -30.6820  -74.4160   -4.8330 O         1 <0>         0.0000
  46701 WAT       -30.6820  -74.4160   -4.5830 O         1 <0>         0.0000
  46702 WAT       -30.6820  -74.4160   -4.3330 O         1 <0>         0.0000
  46703 WAT       -30.6820  -74.4160   -4.0830 O         1 <0>         0.0000
  46704 WAT       -30.6820  -74.4160   -3.8330 O         1 <0>         0.0000
  46705 WAT       -30.6820  -74.4160   -3.5830 O         1 <0>         0.0000
  46706 WAT       -30.6820  -74.4160   -3.3330 O         1 <0>         0.0000
  46707 WAT       -30.6820  -74.4160   -3.0830 O         1 <0>         0.0000
  46708 WAT       -30.6820  -74.4160   -2.8330 O         1 <0>         0.0000
  46709 WAT       -30.6820  -74.4160   -2.5830 O         1 <0>         0.0000
  46710 WAT       -30.6820  -74.4160   -2.3330 O         1 <0>         0.0000
  46711 WAT       -30.6820  -74.4160   -2.0830 O         1 <0>         0.0000
  46712 WAT       -30.6820  -74.4160   -1.8330 O         1 <0>         0.0000
  46713 WAT       -30.6820  -74.4160   -1.5830 O         1 <0>         0.0000
  46714 WAT       -30.6820  -74.4160   -1.3330 O         1 <0>         0.0000
  46715 WAT       -30.6820  -74.4160   -1.0830 O         1 <0>         0.0000
  46716 WAT       -30.6820  -74.4160   -0.8330 O         1 <0>         0.0000
  46717 WAT       -30.6820  -74.4160   -0.5830 O         1 <0>         0.0000
  46718 WAT       -30.6820  -74.4160   -0.3330 O         1 <0>         0.0000
  46719 WAT       -30.6820  -74.4160   -0.0830 O         1 <0>         0.0000
  46720 WAT       -30.6820  -74.1660   -9.8330 O         1 <0>         0.0000
  46721 WAT       -30.6820  -74.1660   -9.5830 O         1 <0>         0.0000
  46722 WAT       -30.6820  -74.1660   -9.3330 O         1 <0>         0.0000
  46723 WAT       -30.6820  -74.1660   -9.0830 O         1 <0>         0.0000
  46724 WAT       -30.6820  -74.1660   -8.8330 O         1 <0>         0.0000
  46725 WAT       -30.6820  -74.1660   -8.5830 O         1 <0>         0.0000
  46726 WAT       -30.6820  -74.1660   -8.3330 O         1 <0>         0.0000
  46727 WAT       -30.6820  -74.1660   -8.0830 O         1 <0>         0.0000
  46728 WAT       -30.6820  -74.1660   -7.8330 O         1 <0>         0.0000
  46729 WAT       -30.6820  -74.1660   -7.5830 O         1 <0>         0.0000
  46730 WAT       -30.6820  -74.1660   -7.3330 O         1 <0>         0.0000
  46731 WAT       -30.6820  -74.1660   -7.0830 O         1 <0>         0.0000
  46732 WAT       -30.6820  -74.1660   -6.8330 O         1 <0>         0.0000
  46733 WAT       -30.6820  -74.1660   -6.5830 O         1 <0>         0.0000
  46734 WAT       -30.6820  -74.1660   -6.3330 O         1 <0>         0.0000
  46735 WAT       -30.6820  -74.1660   -6.0830 O         1 <0>         0.0000
  46736 WAT       -30.6820  -74.1660   -5.8330 O         1 <0>         0.0000
  46737 WAT       -30.6820  -74.1660   -5.5830 O         1 <0>         0.0000
  46738 WAT       -30.6820  -74.1660   -5.3330 O         1 <0>         0.0000
  46739 WAT       -30.6820  -74.1660   -5.0830 O         1 <0>         0.0001
  46740 WAT       -30.6820  -74.1660   -4.8330 O         1 <0>         0.0002
  46741 WAT       -30.6820  -74.1660   -4.5830 O         1 <0>         0.0002
  46742 WAT       -30.6820  -74.1660   -4.3330 O         1 <0>         0.0002
  46743 WAT       -30.6820  -74.1660   -4.0830 O         1 <0>         0.0001
  46744 WAT       -30.6820  -74.1660   -3.8330 O         1 <0>         0.0000
  46745 WAT       -30.6820  -74.1660   -3.5830 O         1 <0>         0.0000
  46746 WAT       -30.6820  -74.1660   -3.3330 O         1 <0>         0.0000
  46747 WAT       -30.6820  -74.1660   -3.0830 O         1 <0>         0.0000
  46748 WAT       -30.6820  -74.1660   -2.8330 O         1 <0>         0.0000
  46749 WAT       -30.6820  -74.1660   -2.5830 O         1 <0>         0.0000
  46750 WAT       -30.6820  -74.1660   -2.3330 O         1 <0>         0.0000
  46751 WAT       -30.6820  -74.1660   -2.0830 O         1 <0>         0.0000
  46752 WAT       -30.6820  -74.1660   -1.8330 O         1 <0>         0.0000
  46753 WAT       -30.6820  -74.1660   -1.5830 O         1 <0>         0.0000
  46754 WAT       -30.6820  -74.1660   -1.3330 O         1 <0>         0.0000
  46755 WAT       -30.6820  -74.1660   -1.0830 O         1 <0>         0.0000
  46756 WAT       -30.6820  -74.1660   -0.8330 O         1 <0>         0.0000
  46757 WAT       -30.6820  -74.1660   -0.5830 O         1 <0>         0.0000
  46758 WAT       -30.6820  -74.1660   -0.3330 O         1 <0>         0.0000
  46759 WAT       -30.6820  -74.1660   -0.0830 O         1 <0>         0.0000
  46760 WAT       -30.6820  -73.9160   -9.8330 O         1 <0>         0.0000
  46761 WAT       -30.6820  -73.9160   -9.5830 O         1 <0>         0.0000
  46762 WAT       -30.6820  -73.9160   -9.3330 O         1 <0>         0.0000
  46763 WAT       -30.6820  -73.9160   -9.0830 O         1 <0>         0.0000
  46764 WAT       -30.6820  -73.9160   -8.8330 O         1 <0>         0.0000
  46765 WAT       -30.6820  -73.9160   -8.5830 O         1 <0>         0.0000
  46766 WAT       -30.6820  -73.9160   -8.3330 O         1 <0>         0.0000
  46767 WAT       -30.6820  -73.9160   -8.0830 O         1 <0>         0.0000
  46768 WAT       -30.6820  -73.9160   -7.8330 O         1 <0>         0.0000
  46769 WAT       -30.6820  -73.9160   -7.5830 O         1 <0>         0.0000
  46770 WAT       -30.6820  -73.9160   -7.3330 O         1 <0>         0.0000
  46771 WAT       -30.6820  -73.9160   -7.0830 O         1 <0>         0.0000
  46772 WAT       -30.6820  -73.9160   -6.8330 O         1 <0>         0.0000
  46773 WAT       -30.6820  -73.9160   -6.5830 O         1 <0>         0.0000
  46774 WAT       -30.6820  -73.9160   -6.3330 O         1 <0>         0.0000
  46775 WAT       -30.6820  -73.9160   -6.0830 O         1 <0>         0.0000
  46776 WAT       -30.6820  -73.9160   -5.8330 O         1 <0>         0.0000
  46777 WAT       -30.6820  -73.9160   -5.5830 O         1 <0>         0.0000
  46778 WAT       -30.6820  -73.9160   -5.3330 O         1 <0>         0.0003
  46779 WAT       -30.6820  -73.9160   -5.0830 O         1 <0>         0.0010
  46780 WAT       -30.6820  -73.9160   -4.8330 O         1 <0>         0.0019
  46781 WAT       -30.6820  -73.9160   -4.5830 O         1 <0>         0.0025
  46782 WAT       -30.6820  -73.9160   -4.3330 O         1 <0>         0.0022
  46783 WAT       -30.6820  -73.9160   -4.0830 O         1 <0>         0.0012
  46784 WAT       -30.6820  -73.9160   -3.8330 O         1 <0>         0.0004
  46785 WAT       -30.6820  -73.9160   -3.5830 O         1 <0>         0.0001
  46786 WAT       -30.6820  -73.9160   -3.3330 O         1 <0>         0.0000
  46787 WAT       -30.6820  -73.9160   -3.0830 O         1 <0>         0.0000
  46788 WAT       -30.6820  -73.9160   -2.8330 O         1 <0>         0.0000
  46789 WAT       -30.6820  -73.9160   -2.5830 O         1 <0>         0.0000
  46790 WAT       -30.6820  -73.9160   -2.3330 O         1 <0>         0.0000
  46791 WAT       -30.6820  -73.9160   -2.0830 O         1 <0>         0.0000
  46792 WAT       -30.6820  -73.9160   -1.8330 O         1 <0>         0.0000
  46793 WAT       -30.6820  -73.9160   -1.5830 O         1 <0>         0.0000
  46794 WAT       -30.6820  -73.9160   -1.3330 O         1 <0>         0.0000
  46795 WAT       -30.6820  -73.9160   -1.0830 O         1 <0>         0.0000
  46796 WAT       -30.6820  -73.9160   -0.8330 O         1 <0>         0.0000
  46797 WAT       -30.6820  -73.9160   -0.5830 O         1 <0>         0.0000
  46798 WAT       -30.6820  -73.9160   -0.3330 O         1 <0>         0.0000
  46799 WAT       -30.6820  -73.9160   -0.0830 O         1 <0>         0.0000
  46800 WAT       -30.6820  -73.6660   -9.8330 O         1 <0>         0.0000
  46801 WAT       -30.6820  -73.6660   -9.5830 O         1 <0>         0.0000
  46802 WAT       -30.6820  -73.6660   -9.3330 O         1 <0>         0.0000
  46803 WAT       -30.6820  -73.6660   -9.0830 O         1 <0>         0.0000
  46804 WAT       -30.6820  -73.6660   -8.8330 O         1 <0>         0.0000
  46805 WAT       -30.6820  -73.6660   -8.5830 O         1 <0>         0.0000
  46806 WAT       -30.6820  -73.6660   -8.3330 O         1 <0>         0.0000
  46807 WAT       -30.6820  -73.6660   -8.0830 O         1 <0>         0.0000
  46808 WAT       -30.6820  -73.6660   -7.8330 O         1 <0>         0.0000
  46809 WAT       -30.6820  -73.6660   -7.5830 O         1 <0>         0.0000
  46810 WAT       -30.6820  -73.6660   -7.3330 O         1 <0>         0.0000
  46811 WAT       -30.6820  -73.6660   -7.0830 O         1 <0>         0.0000
  46812 WAT       -30.6820  -73.6660   -6.8330 O         1 <0>         0.0000
  46813 WAT       -30.6820  -73.6660   -6.5830 O         1 <0>         0.0000
  46814 WAT       -30.6820  -73.6660   -6.3330 O         1 <0>         0.0000
  46815 WAT       -30.6820  -73.6660   -6.0830 O         1 <0>         0.0000
  46816 WAT       -30.6820  -73.6660   -5.8330 O         1 <0>         0.0002
  46817 WAT       -30.6820  -73.6660   -5.5830 O         1 <0>         0.0008
  46818 WAT       -30.6820  -73.6660   -5.3330 O         1 <0>         0.0030
  46819 WAT       -30.6820  -73.6660   -5.0830 O         1 <0>         0.0073
  46820 WAT       -30.6820  -73.6660   -4.8330 O         1 <0>         0.0123
  46821 WAT       -30.6820  -73.6660   -4.5830 O         1 <0>         0.0146
  46822 WAT       -30.6820  -73.6660   -4.3330 O         1 <0>         0.0124
  46823 WAT       -30.6820  -73.6660   -4.0830 O         1 <0>         0.0073
  46824 WAT       -30.6820  -73.6660   -3.8330 O         1 <0>         0.0028
  46825 WAT       -30.6820  -73.6660   -3.5830 O         1 <0>         0.0006
  46826 WAT       -30.6820  -73.6660   -3.3330 O         1 <0>         0.0001
  46827 WAT       -30.6820  -73.6660   -3.0830 O         1 <0>         0.0000
  46828 WAT       -30.6820  -73.6660   -2.8330 O         1 <0>         0.0000
  46829 WAT       -30.6820  -73.6660   -2.5830 O         1 <0>         0.0000
  46830 WAT       -30.6820  -73.6660   -2.3330 O         1 <0>         0.0000
  46831 WAT       -30.6820  -73.6660   -2.0830 O         1 <0>         0.0000
  46832 WAT       -30.6820  -73.6660   -1.8330 O         1 <0>         0.0000
  46833 WAT       -30.6820  -73.6660   -1.5830 O         1 <0>         0.0000
  46834 WAT       -30.6820  -73.6660   -1.3330 O         1 <0>         0.0000
  46835 WAT       -30.6820  -73.6660   -1.0830 O         1 <0>         0.0000
  46836 WAT       -30.6820  -73.6660   -0.8330 O         1 <0>         0.0000
  46837 WAT       -30.6820  -73.6660   -0.5830 O         1 <0>         0.0000
  46838 WAT       -30.6820  -73.6660   -0.3330 O         1 <0>         0.0000
  46839 WAT       -30.6820  -73.6660   -0.0830 O         1 <0>         0.0000
  46840 WAT       -30.6820  -73.4160   -9.8330 O         1 <0>         0.0000
  46841 WAT       -30.6820  -73.4160   -9.5830 O         1 <0>         0.0000
  46842 WAT       -30.6820  -73.4160   -9.3330 O         1 <0>         0.0000
  46843 WAT       -30.6820  -73.4160   -9.0830 O         1 <0>         0.0000
  46844 WAT       -30.6820  -73.4160   -8.8330 O         1 <0>         0.0000
  46845 WAT       -30.6820  -73.4160   -8.5830 O         1 <0>         0.0000
  46846 WAT       -30.6820  -73.4160   -8.3330 O         1 <0>         0.0000
  46847 WAT       -30.6820  -73.4160   -8.0830 O         1 <0>         0.0000
  46848 WAT       -30.6820  -73.4160   -7.8330 O         1 <0>         0.0000
  46849 WAT       -30.6820  -73.4160   -7.5830 O         1 <0>         0.0000
  46850 WAT       -30.6820  -73.4160   -7.3330 O         1 <0>         0.0000
  46851 WAT       -30.6820  -73.4160   -7.0830 O         1 <0>         0.0000
  46852 WAT       -30.6820  -73.4160   -6.8330 O         1 <0>         0.0000
  46853 WAT       -30.6820  -73.4160   -6.5830 O         1 <0>         0.0000
  46854 WAT       -30.6820  -73.4160   -6.3330 O         1 <0>         0.0000
  46855 WAT       -30.6820  -73.4160   -6.0830 O         1 <0>         0.0002
  46856 WAT       -30.6820  -73.4160   -5.8330 O         1 <0>         0.0011
  46857 WAT       -30.6820  -73.4160   -5.5830 O         1 <0>         0.0051
  46858 WAT       -30.6820  -73.4160   -5.3330 O         1 <0>         0.0153
  46859 WAT       -30.6820  -73.4160   -5.0830 O         1 <0>         0.0324
  46860 WAT       -30.6820  -73.4160   -4.8330 O         1 <0>         0.0494
  46861 WAT       -30.6820  -73.4160   -4.5830 O         1 <0>         0.0555
  46862 WAT       -30.6820  -73.4160   -4.3330 O         1 <0>         0.0457
  46863 WAT       -30.6820  -73.4160   -4.0830 O         1 <0>         0.0270
  46864 WAT       -30.6820  -73.4160   -3.8330 O         1 <0>         0.0110
  46865 WAT       -30.6820  -73.4160   -3.5830 O         1 <0>         0.0029
  46866 WAT       -30.6820  -73.4160   -3.3330 O         1 <0>         0.0004
  46867 WAT       -30.6820  -73.4160   -3.0830 O         1 <0>         0.0000
  46868 WAT       -30.6820  -73.4160   -2.8330 O         1 <0>         0.0000
  46869 WAT       -30.6820  -73.4160   -2.5830 O         1 <0>         0.0000
  46870 WAT       -30.6820  -73.4160   -2.3330 O         1 <0>         0.0000
  46871 WAT       -30.6820  -73.4160   -2.0830 O         1 <0>         0.0000
  46872 WAT       -30.6820  -73.4160   -1.8330 O         1 <0>         0.0000
  46873 WAT       -30.6820  -73.4160   -1.5830 O         1 <0>         0.0000
  46874 WAT       -30.6820  -73.4160   -1.3330 O         1 <0>         0.0000
  46875 WAT       -30.6820  -73.4160   -1.0830 O         1 <0>         0.0000
  46876 WAT       -30.6820  -73.4160   -0.8330 O         1 <0>         0.0000
  46877 WAT       -30.6820  -73.4160   -0.5830 O         1 <0>         0.0000
  46878 WAT       -30.6820  -73.4160   -0.3330 O         1 <0>         0.0000
  46879 WAT       -30.6820  -73.4160   -0.0830 O         1 <0>         0.0000
  46880 WAT       -30.6820  -73.1660   -9.8330 O         1 <0>         0.0000
  46881 WAT       -30.6820  -73.1660   -9.5830 O         1 <0>         0.0000
  46882 WAT       -30.6820  -73.1660   -9.3330 O         1 <0>         0.0000
  46883 WAT       -30.6820  -73.1660   -9.0830 O         1 <0>         0.0000
  46884 WAT       -30.6820  -73.1660   -8.8330 O         1 <0>         0.0000
  46885 WAT       -30.6820  -73.1660   -8.5830 O         1 <0>         0.0000
  46886 WAT       -30.6820  -73.1660   -8.3330 O         1 <0>         0.0001
  46887 WAT       -30.6820  -73.1660   -8.0830 O         1 <0>         0.0004
  46888 WAT       -30.6820  -73.1660   -7.8330 O         1 <0>         0.0007
  46889 WAT       -30.6820  -73.1660   -7.5830 O         1 <0>         0.0006
  46890 WAT       -30.6820  -73.1660   -7.3330 O         1 <0>         0.0003
  46891 WAT       -30.6820  -73.1660   -7.0830 O         1 <0>         0.0001
  46892 WAT       -30.6820  -73.1660   -6.8330 O         1 <0>         0.0000
  46893 WAT       -30.6820  -73.1660   -6.5830 O         1 <0>         0.0000
  46894 WAT       -30.6820  -73.1660   -6.3330 O         1 <0>         0.0001
  46895 WAT       -30.6820  -73.1660   -6.0830 O         1 <0>         0.0008
  46896 WAT       -30.6820  -73.1660   -5.8330 O         1 <0>         0.0046
  46897 WAT       -30.6820  -73.1660   -5.5830 O         1 <0>         0.0177
  46898 WAT       -30.6820  -73.1660   -5.3330 O         1 <0>         0.0479
  46899 WAT       -30.6820  -73.1660   -5.0830 O         1 <0>         0.0940
  46900 WAT       -30.6820  -73.1660   -4.8330 O         1 <0>         0.1357
  46901 WAT       -30.6820  -73.1660   -4.5830 O         1 <0>         0.1454
  46902 WAT       -30.6820  -73.1660   -4.3330 O         1 <0>         0.1156
  46903 WAT       -30.6820  -73.1660   -4.0830 O         1 <0>         0.0673
  46904 WAT       -30.6820  -73.1660   -3.8330 O         1 <0>         0.0278
  46905 WAT       -30.6820  -73.1660   -3.5830 O         1 <0>         0.0079
  46906 WAT       -30.6820  -73.1660   -3.3330 O         1 <0>         0.0014
  46907 WAT       -30.6820  -73.1660   -3.0830 O         1 <0>         0.0001
  46908 WAT       -30.6820  -73.1660   -2.8330 O         1 <0>         0.0000
  46909 WAT       -30.6820  -73.1660   -2.5830 O         1 <0>         0.0000
  46910 WAT       -30.6820  -73.1660   -2.3330 O         1 <0>         0.0000
  46911 WAT       -30.6820  -73.1660   -2.0830 O         1 <0>         0.0000
  46912 WAT       -30.6820  -73.1660   -1.8330 O         1 <0>         0.0000
  46913 WAT       -30.6820  -73.1660   -1.5830 O         1 <0>         0.0000
  46914 WAT       -30.6820  -73.1660   -1.3330 O         1 <0>         0.0000
  46915 WAT       -30.6820  -73.1660   -1.0830 O         1 <0>         0.0000
  46916 WAT       -30.6820  -73.1660   -0.8330 O         1 <0>         0.0000
  46917 WAT       -30.6820  -73.1660   -0.5830 O         1 <0>         0.0000
  46918 WAT       -30.6820  -73.1660   -0.3330 O         1 <0>         0.0000
  46919 WAT       -30.6820  -73.1660   -0.0830 O         1 <0>         0.0000
  46920 WAT       -30.6820  -72.9160   -9.8330 O         1 <0>         0.0000
  46921 WAT       -30.6820  -72.9160   -9.5830 O         1 <0>         0.0000
  46922 WAT       -30.6820  -72.9160   -9.3330 O         1 <0>         0.0000
  46923 WAT       -30.6820  -72.9160   -9.0830 O         1 <0>         0.0000
  46924 WAT       -30.6820  -72.9160   -8.8330 O         1 <0>         0.0000
  46925 WAT       -30.6820  -72.9160   -8.5830 O         1 <0>         0.0003
  46926 WAT       -30.6820  -72.9160   -8.3330 O         1 <0>         0.0022
  46927 WAT       -30.6820  -72.9160   -8.0830 O         1 <0>         0.0059
  46928 WAT       -30.6820  -72.9160   -7.8330 O         1 <0>         0.0082
  46929 WAT       -30.6820  -72.9160   -7.5830 O         1 <0>         0.0067
  46930 WAT       -30.6820  -72.9160   -7.3330 O         1 <0>         0.0034
  46931 WAT       -30.6820  -72.9160   -7.0830 O         1 <0>         0.0011
  46932 WAT       -30.6820  -72.9160   -6.8330 O         1 <0>         0.0003
  46933 WAT       -30.6820  -72.9160   -6.5830 O         1 <0>         0.0001
  46934 WAT       -30.6820  -72.9160   -6.3330 O         1 <0>         0.0004
  46935 WAT       -30.6820  -72.9160   -6.0830 O         1 <0>         0.0023
  46936 WAT       -30.6820  -72.9160   -5.8330 O         1 <0>         0.0113
  46937 WAT       -30.6820  -72.9160   -5.5830 O         1 <0>         0.0404
  46938 WAT       -30.6820  -72.9160   -5.3330 O         1 <0>         0.1031
  46939 WAT       -30.6820  -72.9160   -5.0830 O         1 <0>         0.1929
  46940 WAT       -30.6820  -72.9160   -4.8330 O         1 <0>         0.2662
  46941 WAT       -30.6820  -72.9160   -4.5830 O         1 <0>         0.2730
  46942 WAT       -30.6820  -72.9160   -4.3330 O         1 <0>         0.2085
  46943 WAT       -30.6820  -72.9160   -4.0830 O         1 <0>         0.1180
  46944 WAT       -30.6820  -72.9160   -3.8330 O         1 <0>         0.0485
  46945 WAT       -30.6820  -72.9160   -3.5830 O         1 <0>         0.0142
  46946 WAT       -30.6820  -72.9160   -3.3330 O         1 <0>         0.0028
  46947 WAT       -30.6820  -72.9160   -3.0830 O         1 <0>         0.0003
  46948 WAT       -30.6820  -72.9160   -2.8330 O         1 <0>         0.0000
  46949 WAT       -30.6820  -72.9160   -2.5830 O         1 <0>         0.0000
  46950 WAT       -30.6820  -72.9160   -2.3330 O         1 <0>         0.0000
  46951 WAT       -30.6820  -72.9160   -2.0830 O         1 <0>         0.0000
  46952 WAT       -30.6820  -72.9160   -1.8330 O         1 <0>         0.0000
  46953 WAT       -30.6820  -72.9160   -1.5830 O         1 <0>         0.0000
  46954 WAT       -30.6820  -72.9160   -1.3330 O         1 <0>         0.0000
  46955 WAT       -30.6820  -72.9160   -1.0830 O         1 <0>         0.0000
  46956 WAT       -30.6820  -72.9160   -0.8330 O         1 <0>         0.0000
  46957 WAT       -30.6820  -72.9160   -0.5830 O         1 <0>         0.0000
  46958 WAT       -30.6820  -72.9160   -0.3330 O         1 <0>         0.0000
  46959 WAT       -30.6820  -72.9160   -0.0830 O         1 <0>         0.0000
  46960 WAT       -30.6820  -72.6660   -9.8330 O         1 <0>         0.0000
  46961 WAT       -30.6820  -72.6660   -9.5830 O         1 <0>         0.0000
  46962 WAT       -30.6820  -72.6660   -9.3330 O         1 <0>         0.0000
  46963 WAT       -30.6820  -72.6660   -9.0830 O         1 <0>         0.0000
  46964 WAT       -30.6820  -72.6660   -8.8330 O         1 <0>         0.0003
  46965 WAT       -30.6820  -72.6660   -8.5830 O         1 <0>         0.0045
  46966 WAT       -30.6820  -72.6660   -8.3330 O         1 <0>         0.0188
  46967 WAT       -30.6820  -72.6660   -8.0830 O         1 <0>         0.0388
  46968 WAT       -30.6820  -72.6660   -7.8330 O         1 <0>         0.0482
  46969 WAT       -30.6820  -72.6660   -7.5830 O         1 <0>         0.0377
  46970 WAT       -30.6820  -72.6660   -7.3330 O         1 <0>         0.0188
  46971 WAT       -30.6820  -72.6660   -7.0830 O         1 <0>         0.0061
  46972 WAT       -30.6820  -72.6660   -6.8330 O         1 <0>         0.0015
  46973 WAT       -30.6820  -72.6660   -6.5830 O         1 <0>         0.0006
  46974 WAT       -30.6820  -72.6660   -6.3330 O         1 <0>         0.0008
  46975 WAT       -30.6820  -72.6660   -6.0830 O         1 <0>         0.0041
  46976 WAT       -30.6820  -72.6660   -5.8330 O         1 <0>         0.0191
  46977 WAT       -30.6820  -72.6660   -5.5830 O         1 <0>         0.0648
  46978 WAT       -30.6820  -72.6660   -5.3330 O         1 <0>         0.1590
  46979 WAT       -30.6820  -72.6660   -5.0830 O         1 <0>         0.2867
  46980 WAT       -30.6820  -72.6660   -4.8330 O         1 <0>         0.3805
  46981 WAT       -30.6820  -72.6660   -4.5830 O         1 <0>         0.3735
  46982 WAT       -30.6820  -72.6660   -4.3330 O         1 <0>         0.2733
  46983 WAT       -30.6820  -72.6660   -4.0830 O         1 <0>         0.1494
  46984 WAT       -30.6820  -72.6660   -3.8330 O         1 <0>         0.0605
  46985 WAT       -30.6820  -72.6660   -3.5830 O         1 <0>         0.0179
  46986 WAT       -30.6820  -72.6660   -3.3330 O         1 <0>         0.0037
  46987 WAT       -30.6820  -72.6660   -3.0830 O         1 <0>         0.0005
  46988 WAT       -30.6820  -72.6660   -2.8330 O         1 <0>         0.0000
  46989 WAT       -30.6820  -72.6660   -2.5830 O         1 <0>         0.0000
  46990 WAT       -30.6820  -72.6660   -2.3330 O         1 <0>         0.0000
  46991 WAT       -30.6820  -72.6660   -2.0830 O         1 <0>         0.0000
  46992 WAT       -30.6820  -72.6660   -1.8330 O         1 <0>         0.0000
  46993 WAT       -30.6820  -72.6660   -1.5830 O         1 <0>         0.0000
  46994 WAT       -30.6820  -72.6660   -1.3330 O         1 <0>         0.0000
  46995 WAT       -30.6820  -72.6660   -1.0830 O         1 <0>         0.0000
  46996 WAT       -30.6820  -72.6660   -0.8330 O         1 <0>         0.0000
  46997 WAT       -30.6820  -72.6660   -0.5830 O         1 <0>         0.0000
  46998 WAT       -30.6820  -72.6660   -0.3330 O         1 <0>         0.0000
  46999 WAT       -30.6820  -72.6660   -0.0830 O         1 <0>         0.0000
  47000 WAT       -30.6820  -72.4160   -9.8330 O         1 <0>         0.0000
  47001 WAT       -30.6820  -72.4160   -9.5830 O         1 <0>         0.0000
  47002 WAT       -30.6820  -72.4160   -9.3330 O         1 <0>         0.0000
  47003 WAT       -30.6820  -72.4160   -9.0830 O         1 <0>         0.0000
  47004 WAT       -30.6820  -72.4160   -8.8330 O         1 <0>         0.0033
  47005 WAT       -30.6820  -72.4160   -8.5830 O         1 <0>         0.0247
  47006 WAT       -30.6820  -72.4160   -8.3330 O         1 <0>         0.0767
  47007 WAT       -30.6820  -72.4160   -8.0830 O         1 <0>         0.1419
  47008 WAT       -30.6820  -72.4160   -7.8330 O         1 <0>         0.1666
  47009 WAT       -30.6820  -72.4160   -7.5830 O         1 <0>         0.1259
  47010 WAT       -30.6820  -72.4160   -7.3330 O         1 <0>         0.0620
  47011 WAT       -30.6820  -72.4160   -7.0830 O         1 <0>         0.0202
  47012 WAT       -30.6820  -72.4160   -6.8330 O         1 <0>         0.0048
  47013 WAT       -30.6820  -72.4160   -6.5830 O         1 <0>         0.0014
  47014 WAT       -30.6820  -72.4160   -6.3330 O         1 <0>         0.0014
  47015 WAT       -30.6820  -72.4160   -6.0830 O         1 <0>         0.0053
  47016 WAT       -30.6820  -72.4160   -5.8330 O         1 <0>         0.0232
  47017 WAT       -30.6820  -72.4160   -5.5830 O         1 <0>         0.0758
  47018 WAT       -30.6820  -72.4160   -5.3330 O         1 <0>         0.1804
  47019 WAT       -30.6820  -72.4160   -5.0830 O         1 <0>         0.3147
  47020 WAT       -30.6820  -72.4160   -4.8330 O         1 <0>         0.4026
  47021 WAT       -30.6820  -72.4160   -4.5830 O         1 <0>         0.3794
  47022 WAT       -30.6820  -72.4160   -4.3330 O         1 <0>         0.2662
  47023 WAT       -30.6820  -72.4160   -4.0830 O         1 <0>         0.1406
  47024 WAT       -30.6820  -72.4160   -3.8330 O         1 <0>         0.0559
  47025 WAT       -30.6820  -72.4160   -3.5830 O         1 <0>         0.0167
  47026 WAT       -30.6820  -72.4160   -3.3330 O         1 <0>         0.0037
  47027 WAT       -30.6820  -72.4160   -3.0830 O         1 <0>         0.0006
  47028 WAT       -30.6820  -72.4160   -2.8330 O         1 <0>         0.0001
  47029 WAT       -30.6820  -72.4160   -2.5830 O         1 <0>         0.0000
  47030 WAT       -30.6820  -72.4160   -2.3330 O         1 <0>         0.0000
  47031 WAT       -30.6820  -72.4160   -2.0830 O         1 <0>         0.0000
  47032 WAT       -30.6820  -72.4160   -1.8330 O         1 <0>         0.0000
  47033 WAT       -30.6820  -72.4160   -1.5830 O         1 <0>         0.0000
  47034 WAT       -30.6820  -72.4160   -1.3330 O         1 <0>         0.0000
  47035 WAT       -30.6820  -72.4160   -1.0830 O         1 <0>         0.0000
  47036 WAT       -30.6820  -72.4160   -0.8330 O         1 <0>         0.0000
  47037 WAT       -30.6820  -72.4160   -0.5830 O         1 <0>         0.0000
  47038 WAT       -30.6820  -72.4160   -0.3330 O         1 <0>         0.0000
  47039 WAT       -30.6820  -72.4160   -0.0830 O         1 <0>         0.0000
  47040 WAT       -30.6820  -72.1660   -9.8330 O         1 <0>         0.0000
  47041 WAT       -30.6820  -72.1660   -9.5830 O         1 <0>         0.0000
  47042 WAT       -30.6820  -72.1660   -9.3330 O         1 <0>         0.0000
  47043 WAT       -30.6820  -72.1660   -9.0830 O         1 <0>         0.0007
  47044 WAT       -30.6820  -72.1660   -8.8330 O         1 <0>         0.0138
  47045 WAT       -30.6820  -72.1660   -8.5830 O         1 <0>         0.0695
  47046 WAT       -30.6820  -72.1660   -8.3330 O         1 <0>         0.1925
  47047 WAT       -30.6820  -72.1660   -8.0830 O         1 <0>         0.3366
  47048 WAT       -30.6820  -72.1660   -7.8330 O         1 <0>         0.3771
  47049 WAT       -30.6820  -72.1660   -7.5830 O         1 <0>         0.2736
  47050 WAT       -30.6820  -72.1660   -7.3330 O         1 <0>         0.1307
  47051 WAT       -30.6820  -72.1660   -7.0830 O         1 <0>         0.0418
  47052 WAT       -30.6820  -72.1660   -6.8330 O         1 <0>         0.0094
  47053 WAT       -30.6820  -72.1660   -6.5830 O         1 <0>         0.0024
  47054 WAT       -30.6820  -72.1660   -6.3330 O         1 <0>         0.0017
  47055 WAT       -30.6820  -72.1660   -6.0830 O         1 <0>         0.0052
  47056 WAT       -30.6820  -72.1660   -5.8330 O         1 <0>         0.0210
  47057 WAT       -30.6820  -72.1660   -5.5830 O         1 <0>         0.0667
  47058 WAT       -30.6820  -72.1660   -5.3330 O         1 <0>         0.1546
  47059 WAT       -30.6820  -72.1660   -5.0830 O         1 <0>         0.2612
  47060 WAT       -30.6820  -72.1660   -4.8330 O         1 <0>         0.3227
  47061 WAT       -30.6820  -72.1660   -4.5830 O         1 <0>         0.2930
  47062 WAT       -30.6820  -72.1660   -4.3330 O         1 <0>         0.1981
  47063 WAT       -30.6820  -72.1660   -4.0830 O         1 <0>         0.1014
  47064 WAT       -30.6820  -72.1660   -3.8330 O         1 <0>         0.0397
  47065 WAT       -30.6820  -72.1660   -3.5830 O         1 <0>         0.0119
  47066 WAT       -30.6820  -72.1660   -3.3330 O         1 <0>         0.0028
  47067 WAT       -30.6820  -72.1660   -3.0830 O         1 <0>         0.0006
  47068 WAT       -30.6820  -72.1660   -2.8330 O         1 <0>         0.0001
  47069 WAT       -30.6820  -72.1660   -2.5830 O         1 <0>         0.0000
  47070 WAT       -30.6820  -72.1660   -2.3330 O         1 <0>         0.0000
  47071 WAT       -30.6820  -72.1660   -2.0830 O         1 <0>         0.0000
  47072 WAT       -30.6820  -72.1660   -1.8330 O         1 <0>         0.0000
  47073 WAT       -30.6820  -72.1660   -1.5830 O         1 <0>         0.0000
  47074 WAT       -30.6820  -72.1660   -1.3330 O         1 <0>         0.0000
  47075 WAT       -30.6820  -72.1660   -1.0830 O         1 <0>         0.0000
  47076 WAT       -30.6820  -72.1660   -0.8330 O         1 <0>         0.0000
  47077 WAT       -30.6820  -72.1660   -0.5830 O         1 <0>         0.0000
  47078 WAT       -30.6820  -72.1660   -0.3330 O         1 <0>         0.0000
  47079 WAT       -30.6820  -72.1660   -0.0830 O         1 <0>         0.0000
  47080 WAT       -30.6820  -71.9160   -9.8330 O         1 <0>         0.0000
  47081 WAT       -30.6820  -71.9160   -9.5830 O         1 <0>         0.0000
  47082 WAT       -30.6820  -71.9160   -9.3330 O         1 <0>         0.0000
  47083 WAT       -30.6820  -71.9160   -9.0830 O         1 <0>         0.0027
  47084 WAT       -30.6820  -71.9160   -8.8330 O         1 <0>         0.0292
  47085 WAT       -30.6820  -71.9160   -8.5830 O         1 <0>         0.1251
  47086 WAT       -30.6820  -71.9160   -8.3330 O         1 <0>         0.3238
  47087 WAT       -30.6820  -71.9160   -8.0830 O         1 <0>         0.5363
  47088 WAT       -30.6820  -71.9160   -7.8330 O         1 <0>         0.5729
  47089 WAT       -30.6820  -71.9160   -7.5830 O         1 <0>         0.3985
  47090 WAT       -30.6820  -71.9160   -7.3330 O         1 <0>         0.1835
  47091 WAT       -30.6820  -71.9160   -7.0830 O         1 <0>         0.0571
  47092 WAT       -30.6820  -71.9160   -6.8330 O         1 <0>         0.0123
  47093 WAT       -30.6820  -71.9160   -6.5830 O         1 <0>         0.0029
  47094 WAT       -30.6820  -71.9160   -6.3330 O         1 <0>         0.0017
  47095 WAT       -30.6820  -71.9160   -6.0830 O         1 <0>         0.0038
  47096 WAT       -30.6820  -71.9160   -5.8330 O         1 <0>         0.0146
  47097 WAT       -30.6820  -71.9160   -5.5830 O         1 <0>         0.0456
  47098 WAT       -30.6820  -71.9160   -5.3330 O         1 <0>         0.1035
  47099 WAT       -30.6820  -71.9160   -5.0830 O         1 <0>         0.1698
  47100 WAT       -30.6820  -71.9160   -4.8330 O         1 <0>         0.2025
  47101 WAT       -30.6820  -71.9160   -4.5830 O         1 <0>         0.1773
  47102 WAT       -30.6820  -71.9160   -4.3330 O         1 <0>         0.1156
  47103 WAT       -30.6820  -71.9160   -4.0830 O         1 <0>         0.0572
  47104 WAT       -30.6820  -71.9160   -3.8330 O         1 <0>         0.0221
  47105 WAT       -30.6820  -71.9160   -3.5830 O         1 <0>         0.0068
  47106 WAT       -30.6820  -71.9160   -3.3330 O         1 <0>         0.0018
  47107 WAT       -30.6820  -71.9160   -3.0830 O         1 <0>         0.0004
  47108 WAT       -30.6820  -71.9160   -2.8330 O         1 <0>         0.0001
  47109 WAT       -30.6820  -71.9160   -2.5830 O         1 <0>         0.0000
  47110 WAT       -30.6820  -71.9160   -2.3330 O         1 <0>         0.0000
  47111 WAT       -30.6820  -71.9160   -2.0830 O         1 <0>         0.0000
  47112 WAT       -30.6820  -71.9160   -1.8330 O         1 <0>         0.0000
  47113 WAT       -30.6820  -71.9160   -1.5830 O         1 <0>         0.0000
  47114 WAT       -30.6820  -71.9160   -1.3330 O         1 <0>         0.0000
  47115 WAT       -30.6820  -71.9160   -1.0830 O         1 <0>         0.0000
  47116 WAT       -30.6820  -71.9160   -0.8330 O         1 <0>         0.0000
  47117 WAT       -30.6820  -71.9160   -0.5830 O         1 <0>         0.0000
  47118 WAT       -30.6820  -71.9160   -0.3330 O         1 <0>         0.0000
  47119 WAT       -30.6820  -71.9160   -0.0830 O         1 <0>         0.0000
  47120 WAT       -30.6820  -71.6660   -9.8330 O         1 <0>         0.0000
  47121 WAT       -30.6820  -71.6660   -9.5830 O         1 <0>         0.0000
  47122 WAT       -30.6820  -71.6660   -9.3330 O         1 <0>         0.0002
  47123 WAT       -30.6820  -71.6660   -9.0830 O         1 <0>         0.0050
  47124 WAT       -30.6820  -71.6660   -8.8330 O         1 <0>         0.0393
  47125 WAT       -30.6820  -71.6660   -8.5830 O         1 <0>         0.1535
  47126 WAT       -30.6820  -71.6660   -8.3330 O         1 <0>         0.3722
  47127 WAT       -30.6820  -71.6660   -8.0830 O         1 <0>         0.5816
  47128 WAT       -30.6820  -71.6660   -7.8330 O         1 <0>         0.5903
  47129 WAT       -30.6820  -71.6660   -7.5830 O         1 <0>         0.3927
  47130 WAT       -30.6820  -71.6660   -7.3330 O         1 <0>         0.1742
  47131 WAT       -30.6820  -71.6660   -7.0830 O         1 <0>         0.0521
  47132 WAT       -30.6820  -71.6660   -6.8330 O         1 <0>         0.0106
  47133 WAT       -30.6820  -71.6660   -6.5830 O         1 <0>         0.0024
  47134 WAT       -30.6820  -71.6660   -6.3330 O         1 <0>         0.0013
  47135 WAT       -30.6820  -71.6660   -6.0830 O         1 <0>         0.0023
  47136 WAT       -30.6820  -71.6660   -5.8330 O         1 <0>         0.0083
  47137 WAT       -30.6820  -71.6660   -5.5830 O         1 <0>         0.0255
  47138 WAT       -30.6820  -71.6660   -5.3330 O         1 <0>         0.0566
  47139 WAT       -30.6820  -71.6660   -5.0830 O         1 <0>         0.0903
  47140 WAT       -30.6820  -71.6660   -4.8330 O         1 <0>         0.1037
  47141 WAT       -30.6820  -71.6660   -4.5830 O         1 <0>         0.0871
  47142 WAT       -30.6820  -71.6660   -4.3330 O         1 <0>         0.0543
  47143 WAT       -30.6820  -71.6660   -4.0830 O         1 <0>         0.0258
  47144 WAT       -30.6820  -71.6660   -3.8330 O         1 <0>         0.0097
  47145 WAT       -30.6820  -71.6660   -3.5830 O         1 <0>         0.0031
  47146 WAT       -30.6820  -71.6660   -3.3330 O         1 <0>         0.0010
  47147 WAT       -30.6820  -71.6660   -3.0830 O         1 <0>         0.0003
  47148 WAT       -30.6820  -71.6660   -2.8330 O         1 <0>         0.0001
  47149 WAT       -30.6820  -71.6660   -2.5830 O         1 <0>         0.0000
  47150 WAT       -30.6820  -71.6660   -2.3330 O         1 <0>         0.0000
  47151 WAT       -30.6820  -71.6660   -2.0830 O         1 <0>         0.0000
  47152 WAT       -30.6820  -71.6660   -1.8330 O         1 <0>         0.0000
  47153 WAT       -30.6820  -71.6660   -1.5830 O         1 <0>         0.0000
  47154 WAT       -30.6820  -71.6660   -1.3330 O         1 <0>         0.0000
  47155 WAT       -30.6820  -71.6660   -1.0830 O         1 <0>         0.0000
  47156 WAT       -30.6820  -71.6660   -0.8330 O         1 <0>         0.0000
  47157 WAT       -30.6820  -71.6660   -0.5830 O         1 <0>         0.0000
  47158 WAT       -30.6820  -71.6660   -0.3330 O         1 <0>         0.0000
  47159 WAT       -30.6820  -71.6660   -0.0830 O         1 <0>         0.0000
  47160 WAT       -30.6820  -71.4160   -9.8330 O         1 <0>         0.0000
  47161 WAT       -30.6820  -71.4160   -9.5830 O         1 <0>         0.0000
  47162 WAT       -30.6820  -71.4160   -9.3330 O         1 <0>         0.0003
  47163 WAT       -30.6820  -71.4160   -9.0830 O         1 <0>         0.0055
  47164 WAT       -30.6820  -71.4160   -8.8330 O         1 <0>         0.0362
  47165 WAT       -30.6820  -71.4160   -8.5830 O         1 <0>         0.1314
  47166 WAT       -30.6820  -71.4160   -8.3330 O         1 <0>         0.2970
  47167 WAT       -30.6820  -71.4160   -8.0830 O         1 <0>         0.4353
  47168 WAT       -30.6820  -71.4160   -7.8330 O         1 <0>         0.4175
  47169 WAT       -30.6820  -71.4160   -7.5830 O         1 <0>         0.2649
  47170 WAT       -30.6820  -71.4160   -7.3330 O         1 <0>         0.1130
  47171 WAT       -30.6820  -71.4160   -7.0830 O         1 <0>         0.0316
  47172 WAT       -30.6820  -71.4160   -6.8330 O         1 <0>         0.0060
  47173 WAT       -30.6820  -71.4160   -6.5830 O         1 <0>         0.0015
  47174 WAT       -30.6820  -71.4160   -6.3330 O         1 <0>         0.0008
  47175 WAT       -30.6820  -71.4160   -6.0830 O         1 <0>         0.0012
  47176 WAT       -30.6820  -71.4160   -5.8330 O         1 <0>         0.0041
  47177 WAT       -30.6820  -71.4160   -5.5830 O         1 <0>         0.0124
  47178 WAT       -30.6820  -71.4160   -5.3330 O         1 <0>         0.0269
  47179 WAT       -30.6820  -71.4160   -5.0830 O         1 <0>         0.0413
  47180 WAT       -30.6820  -71.4160   -4.8330 O         1 <0>         0.0453
  47181 WAT       -30.6820  -71.4160   -4.5830 O         1 <0>         0.0361
  47182 WAT       -30.6820  -71.4160   -4.3330 O         1 <0>         0.0211
  47183 WAT       -30.6820  -71.4160   -4.0830 O         1 <0>         0.0095
  47184 WAT       -30.6820  -71.4160   -3.8330 O         1 <0>         0.0035
  47185 WAT       -30.6820  -71.4160   -3.5830 O         1 <0>         0.0012
  47186 WAT       -30.6820  -71.4160   -3.3330 O         1 <0>         0.0004
  47187 WAT       -30.6820  -71.4160   -3.0830 O         1 <0>         0.0002
  47188 WAT       -30.6820  -71.4160   -2.8330 O         1 <0>         0.0001
  47189 WAT       -30.6820  -71.4160   -2.5830 O         1 <0>         0.0001
  47190 WAT       -30.6820  -71.4160   -2.3330 O         1 <0>         0.0000
  47191 WAT       -30.6820  -71.4160   -2.0830 O         1 <0>         0.0000
  47192 WAT       -30.6820  -71.4160   -1.8330 O         1 <0>         0.0000
  47193 WAT       -30.6820  -71.4160   -1.5830 O         1 <0>         0.0000
  47194 WAT       -30.6820  -71.4160   -1.3330 O         1 <0>         0.0000
  47195 WAT       -30.6820  -71.4160   -1.0830 O         1 <0>         0.0000
  47196 WAT       -30.6820  -71.4160   -0.8330 O         1 <0>         0.0000
  47197 WAT       -30.6820  -71.4160   -0.5830 O         1 <0>         0.0000
  47198 WAT       -30.6820  -71.4160   -0.3330 O         1 <0>         0.0000
  47199 WAT       -30.6820  -71.4160   -0.0830 O         1 <0>         0.0000
  47200 WAT       -30.6820  -71.1660   -9.8330 O         1 <0>         0.0000
  47201 WAT       -30.6820  -71.1660   -9.5830 O         1 <0>         0.0000
  47202 WAT       -30.6820  -71.1660   -9.3330 O         1 <0>         0.0003
  47203 WAT       -30.6820  -71.1660   -9.0830 O         1 <0>         0.0039
  47204 WAT       -30.6820  -71.1660   -8.8330 O         1 <0>         0.0234
  47205 WAT       -30.6820  -71.1660   -8.5830 O         1 <0>         0.0792
  47206 WAT       -30.6820  -71.1660   -8.3330 O         1 <0>         0.1670
  47207 WAT       -30.6820  -71.1660   -8.0830 O         1 <0>         0.2285
  47208 WAT       -30.6820  -71.1660   -7.8330 O         1 <0>         0.2061
  47209 WAT       -30.6820  -71.1660   -7.5830 O         1 <0>         0.1241
  47210 WAT       -30.6820  -71.1660   -7.3330 O         1 <0>         0.0498
  47211 WAT       -30.6820  -71.1660   -7.0830 O         1 <0>         0.0124
  47212 WAT       -30.6820  -71.1660   -6.8330 O         1 <0>         0.0023
  47213 WAT       -30.6820  -71.1660   -6.5830 O         1 <0>         0.0007
  47214 WAT       -30.6820  -71.1660   -6.3330 O         1 <0>         0.0004
  47215 WAT       -30.6820  -71.1660   -6.0830 O         1 <0>         0.0006
  47216 WAT       -30.6820  -71.1660   -5.8330 O         1 <0>         0.0020
  47217 WAT       -30.6820  -71.1660   -5.5830 O         1 <0>         0.0057
  47218 WAT       -30.6820  -71.1660   -5.3330 O         1 <0>         0.0118
  47219 WAT       -30.6820  -71.1660   -5.0830 O         1 <0>         0.0170
  47220 WAT       -30.6820  -71.1660   -4.8330 O         1 <0>         0.0175
  47221 WAT       -30.6820  -71.1660   -4.5830 O         1 <0>         0.0129
  47222 WAT       -30.6820  -71.1660   -4.3330 O         1 <0>         0.0070
  47223 WAT       -30.6820  -71.1660   -4.0830 O         1 <0>         0.0029
  47224 WAT       -30.6820  -71.1660   -3.8330 O         1 <0>         0.0010
  47225 WAT       -30.6820  -71.1660   -3.5830 O         1 <0>         0.0004
  47226 WAT       -30.6820  -71.1660   -3.3330 O         1 <0>         0.0002
  47227 WAT       -30.6820  -71.1660   -3.0830 O         1 <0>         0.0001
  47228 WAT       -30.6820  -71.1660   -2.8330 O         1 <0>         0.0001
  47229 WAT       -30.6820  -71.1660   -2.5830 O         1 <0>         0.0001
  47230 WAT       -30.6820  -71.1660   -2.3330 O         1 <0>         0.0000
  47231 WAT       -30.6820  -71.1660   -2.0830 O         1 <0>         0.0000
  47232 WAT       -30.6820  -71.1660   -1.8330 O         1 <0>         0.0000
  47233 WAT       -30.6820  -71.1660   -1.5830 O         1 <0>         0.0000
  47234 WAT       -30.6820  -71.1660   -1.3330 O         1 <0>         0.0000
  47235 WAT       -30.6820  -71.1660   -1.0830 O         1 <0>         0.0000
  47236 WAT       -30.6820  -71.1660   -0.8330 O         1 <0>         0.0000
  47237 WAT       -30.6820  -71.1660   -0.5830 O         1 <0>         0.0000
  47238 WAT       -30.6820  -71.1660   -0.3330 O         1 <0>         0.0000
  47239 WAT       -30.6820  -71.1660   -0.0830 O         1 <0>         0.0000
  47240 WAT       -30.6820  -70.9160   -9.8330 O         1 <0>         0.0000
  47241 WAT       -30.6820  -70.9160   -9.5830 O         1 <0>         0.0000
  47242 WAT       -30.6820  -70.9160   -9.3330 O         1 <0>         0.0002
  47243 WAT       -30.6820  -70.9160   -9.0830 O         1 <0>         0.0020
  47244 WAT       -30.6820  -70.9160   -8.8330 O         1 <0>         0.0108
  47245 WAT       -30.6820  -70.9160   -8.5830 O         1 <0>         0.0339
  47246 WAT       -30.6820  -70.9160   -8.3330 O         1 <0>         0.0666
  47247 WAT       -30.6820  -70.9160   -8.0830 O         1 <0>         0.0849
  47248 WAT       -30.6820  -70.9160   -7.8330 O         1 <0>         0.0715
  47249 WAT       -30.6820  -70.9160   -7.5830 O         1 <0>         0.0399
  47250 WAT       -30.6820  -70.9160   -7.3330 O         1 <0>         0.0142
  47251 WAT       -30.6820  -70.9160   -7.0830 O         1 <0>         0.0032
  47252 WAT       -30.6820  -70.9160   -6.8330 O         1 <0>         0.0007
  47253 WAT       -30.6820  -70.9160   -6.5830 O         1 <0>         0.0002
  47254 WAT       -30.6820  -70.9160   -6.3330 O         1 <0>         0.0002
  47255 WAT       -30.6820  -70.9160   -6.0830 O         1 <0>         0.0004
  47256 WAT       -30.6820  -70.9160   -5.8330 O         1 <0>         0.0012
  47257 WAT       -30.6820  -70.9160   -5.5830 O         1 <0>         0.0029
  47258 WAT       -30.6820  -70.9160   -5.3330 O         1 <0>         0.0052
  47259 WAT       -30.6820  -70.9160   -5.0830 O         1 <0>         0.0068
  47260 WAT       -30.6820  -70.9160   -4.8330 O         1 <0>         0.0064
  47261 WAT       -30.6820  -70.9160   -4.5830 O         1 <0>         0.0044
  47262 WAT       -30.6820  -70.9160   -4.3330 O         1 <0>         0.0022
  47263 WAT       -30.6820  -70.9160   -4.0830 O         1 <0>         0.0009
  47264 WAT       -30.6820  -70.9160   -3.8330 O         1 <0>         0.0003
  47265 WAT       -30.6820  -70.9160   -3.5830 O         1 <0>         0.0002
  47266 WAT       -30.6820  -70.9160   -3.3330 O         1 <0>         0.0001
  47267 WAT       -30.6820  -70.9160   -3.0830 O         1 <0>         0.0001
  47268 WAT       -30.6820  -70.9160   -2.8330 O         1 <0>         0.0001
  47269 WAT       -30.6820  -70.9160   -2.5830 O         1 <0>         0.0000
  47270 WAT       -30.6820  -70.9160   -2.3330 O         1 <0>         0.0000
  47271 WAT       -30.6820  -70.9160   -2.0830 O         1 <0>         0.0000
  47272 WAT       -30.6820  -70.9160   -1.8330 O         1 <0>         0.0000
  47273 WAT       -30.6820  -70.9160   -1.5830 O         1 <0>         0.0000
  47274 WAT       -30.6820  -70.9160   -1.3330 O         1 <0>         0.0000
  47275 WAT       -30.6820  -70.9160   -1.0830 O         1 <0>         0.0000
  47276 WAT       -30.6820  -70.9160   -0.8330 O         1 <0>         0.0000
  47277 WAT       -30.6820  -70.9160   -0.5830 O         1 <0>         0.0000
  47278 WAT       -30.6820  -70.9160   -0.3330 O         1 <0>         0.0000
  47279 WAT       -30.6820  -70.9160   -0.0830 O         1 <0>         0.0000
  47280 WAT       -30.6820  -70.6660   -9.8330 O         1 <0>         0.0000
  47281 WAT       -30.6820  -70.6660   -9.5830 O         1 <0>         0.0000
  47282 WAT       -30.6820  -70.6660   -9.3330 O         1 <0>         0.0001
  47283 WAT       -30.6820  -70.6660   -9.0830 O         1 <0>         0.0007
  47284 WAT       -30.6820  -70.6660   -8.8330 O         1 <0>         0.0036
  47285 WAT       -30.6820  -70.6660   -8.5830 O         1 <0>         0.0105
  47286 WAT       -30.6820  -70.6660   -8.3330 O         1 <0>         0.0190
  47287 WAT       -30.6820  -70.6660   -8.0830 O         1 <0>         0.0223
  47288 WAT       -30.6820  -70.6660   -7.8330 O         1 <0>         0.0170
  47289 WAT       -30.6820  -70.6660   -7.5830 O         1 <0>         0.0084
  47290 WAT       -30.6820  -70.6660   -7.3330 O         1 <0>         0.0026
  47291 WAT       -30.6820  -70.6660   -7.0830 O         1 <0>         0.0006
  47292 WAT       -30.6820  -70.6660   -6.8330 O         1 <0>         0.0001
  47293 WAT       -30.6820  -70.6660   -6.5830 O         1 <0>         0.0000
  47294 WAT       -30.6820  -70.6660   -6.3330 O         1 <0>         0.0001
  47295 WAT       -30.6820  -70.6660   -6.0830 O         1 <0>         0.0004
  47296 WAT       -30.6820  -70.6660   -5.8330 O         1 <0>         0.0009
  47297 WAT       -30.6820  -70.6660   -5.5830 O         1 <0>         0.0018
  47298 WAT       -30.6820  -70.6660   -5.3330 O         1 <0>         0.0026
  47299 WAT       -30.6820  -70.6660   -5.0830 O         1 <0>         0.0029
  47300 WAT       -30.6820  -70.6660   -4.8330 O         1 <0>         0.0026
  47301 WAT       -30.6820  -70.6660   -4.5830 O         1 <0>         0.0018
  47302 WAT       -30.6820  -70.6660   -4.3330 O         1 <0>         0.0009
  47303 WAT       -30.6820  -70.6660   -4.0830 O         1 <0>         0.0004
  47304 WAT       -30.6820  -70.6660   -3.8330 O         1 <0>         0.0001
  47305 WAT       -30.6820  -70.6660   -3.5830 O         1 <0>         0.0000
  47306 WAT       -30.6820  -70.6660   -3.3330 O         1 <0>         0.0000
  47307 WAT       -30.6820  -70.6660   -3.0830 O         1 <0>         0.0000
  47308 WAT       -30.6820  -70.6660   -2.8330 O         1 <0>         0.0000
  47309 WAT       -30.6820  -70.6660   -2.5830 O         1 <0>         0.0000
  47310 WAT       -30.6820  -70.6660   -2.3330 O         1 <0>         0.0000
  47311 WAT       -30.6820  -70.6660   -2.0830 O         1 <0>         0.0000
  47312 WAT       -30.6820  -70.6660   -1.8330 O         1 <0>         0.0000
  47313 WAT       -30.6820  -70.6660   -1.5830 O         1 <0>         0.0000
  47314 WAT       -30.6820  -70.6660   -1.3330 O         1 <0>         0.0000
  47315 WAT       -30.6820  -70.6660   -1.0830 O         1 <0>         0.0000
  47316 WAT       -30.6820  -70.6660   -0.8330 O         1 <0>         0.0000
  47317 WAT       -30.6820  -70.6660   -0.5830 O         1 <0>         0.0000
  47318 WAT       -30.6820  -70.6660   -0.3330 O         1 <0>         0.0000
  47319 WAT       -30.6820  -70.6660   -0.0830 O         1 <0>         0.0000
  47320 WAT       -30.6820  -70.4160   -9.8330 O         1 <0>         0.0000
  47321 WAT       -30.6820  -70.4160   -9.5830 O         1 <0>         0.0000
  47322 WAT       -30.6820  -70.4160   -9.3330 O         1 <0>         0.0000
  47323 WAT       -30.6820  -70.4160   -9.0830 O         1 <0>         0.0002
  47324 WAT       -30.6820  -70.4160   -8.8330 O         1 <0>         0.0009
  47325 WAT       -30.6820  -70.4160   -8.5830 O         1 <0>         0.0024
  47326 WAT       -30.6820  -70.4160   -8.3330 O         1 <0>         0.0040
  47327 WAT       -30.6820  -70.4160   -8.0830 O         1 <0>         0.0043
  47328 WAT       -30.6820  -70.4160   -7.8330 O         1 <0>         0.0029
  47329 WAT       -30.6820  -70.4160   -7.5830 O         1 <0>         0.0013
  47330 WAT       -30.6820  -70.4160   -7.3330 O         1 <0>         0.0005
  47331 WAT       -30.6820  -70.4160   -7.0830 O         1 <0>         0.0003
  47332 WAT       -30.6820  -70.4160   -6.8330 O         1 <0>         0.0002
  47333 WAT       -30.6820  -70.4160   -6.5830 O         1 <0>         0.0001
  47334 WAT       -30.6820  -70.4160   -6.3330 O         1 <0>         0.0002
  47335 WAT       -30.6820  -70.4160   -6.0830 O         1 <0>         0.0004
  47336 WAT       -30.6820  -70.4160   -5.8330 O         1 <0>         0.0009
  47337 WAT       -30.6820  -70.4160   -5.5830 O         1 <0>         0.0013
  47338 WAT       -30.6820  -70.4160   -5.3330 O         1 <0>         0.0014
  47339 WAT       -30.6820  -70.4160   -5.0830 O         1 <0>         0.0015
  47340 WAT       -30.6820  -70.4160   -4.8330 O         1 <0>         0.0014
  47341 WAT       -30.6820  -70.4160   -4.5830 O         1 <0>         0.0011
  47342 WAT       -30.6820  -70.4160   -4.3330 O         1 <0>         0.0006
  47343 WAT       -30.6820  -70.4160   -4.0830 O         1 <0>         0.0003
  47344 WAT       -30.6820  -70.4160   -3.8330 O         1 <0>         0.0001
  47345 WAT       -30.6820  -70.4160   -3.5830 O         1 <0>         0.0000
  47346 WAT       -30.6820  -70.4160   -3.3330 O         1 <0>         0.0000
  47347 WAT       -30.6820  -70.4160   -3.0830 O         1 <0>         0.0000
  47348 WAT       -30.6820  -70.4160   -2.8330 O         1 <0>         0.0000
  47349 WAT       -30.6820  -70.4160   -2.5830 O         1 <0>         0.0000
  47350 WAT       -30.6820  -70.4160   -2.3330 O         1 <0>         0.0000
  47351 WAT       -30.6820  -70.4160   -2.0830 O         1 <0>         0.0000
  47352 WAT       -30.6820  -70.4160   -1.8330 O         1 <0>         0.0000
  47353 WAT       -30.6820  -70.4160   -1.5830 O         1 <0>         0.0000
  47354 WAT       -30.6820  -70.4160   -1.3330 O         1 <0>         0.0000
  47355 WAT       -30.6820  -70.4160   -1.0830 O         1 <0>         0.0000
  47356 WAT       -30.6820  -70.4160   -0.8330 O         1 <0>         0.0000
  47357 WAT       -30.6820  -70.4160   -0.5830 O         1 <0>         0.0000
  47358 WAT       -30.6820  -70.4160   -0.3330 O         1 <0>         0.0000
  47359 WAT       -30.6820  -70.4160   -0.0830 O         1 <0>         0.0000
  47360 WAT       -30.6820  -70.1660   -9.8330 O         1 <0>         0.0000
  47361 WAT       -30.6820  -70.1660   -9.5830 O         1 <0>         0.0000
  47362 WAT       -30.6820  -70.1660   -9.3330 O         1 <0>         0.0000
  47363 WAT       -30.6820  -70.1660   -9.0830 O         1 <0>         0.0001
  47364 WAT       -30.6820  -70.1660   -8.8330 O         1 <0>         0.0002
  47365 WAT       -30.6820  -70.1660   -8.5830 O         1 <0>         0.0005
  47366 WAT       -30.6820  -70.1660   -8.3330 O         1 <0>         0.0008
  47367 WAT       -30.6820  -70.1660   -8.0830 O         1 <0>         0.0009
  47368 WAT       -30.6820  -70.1660   -7.8330 O         1 <0>         0.0011
  47369 WAT       -30.6820  -70.1660   -7.5830 O         1 <0>         0.0018
  47370 WAT       -30.6820  -70.1660   -7.3330 O         1 <0>         0.0025
  47371 WAT       -30.6820  -70.1660   -7.0830 O         1 <0>         0.0025
  47372 WAT       -30.6820  -70.1660   -6.8330 O         1 <0>         0.0017
  47373 WAT       -30.6820  -70.1660   -6.5830 O         1 <0>         0.0009
  47374 WAT       -30.6820  -70.1660   -6.3330 O         1 <0>         0.0005
  47375 WAT       -30.6820  -70.1660   -6.0830 O         1 <0>         0.0006
  47376 WAT       -30.6820  -70.1660   -5.8330 O         1 <0>         0.0008
  47377 WAT       -30.6820  -70.1660   -5.5830 O         1 <0>         0.0009
  47378 WAT       -30.6820  -70.1660   -5.3330 O         1 <0>         0.0009
  47379 WAT       -30.6820  -70.1660   -5.0830 O         1 <0>         0.0009
  47380 WAT       -30.6820  -70.1660   -4.8330 O         1 <0>         0.0010
  47381 WAT       -30.6820  -70.1660   -4.5830 O         1 <0>         0.0008
  47382 WAT       -30.6820  -70.1660   -4.3330 O         1 <0>         0.0005
  47383 WAT       -30.6820  -70.1660   -4.0830 O         1 <0>         0.0002
  47384 WAT       -30.6820  -70.1660   -3.8330 O         1 <0>         0.0000
  47385 WAT       -30.6820  -70.1660   -3.5830 O         1 <0>         0.0000
  47386 WAT       -30.6820  -70.1660   -3.3330 O         1 <0>         0.0000
  47387 WAT       -30.6820  -70.1660   -3.0830 O         1 <0>         0.0000
  47388 WAT       -30.6820  -70.1660   -2.8330 O         1 <0>         0.0000
  47389 WAT       -30.6820  -70.1660   -2.5830 O         1 <0>         0.0000
  47390 WAT       -30.6820  -70.1660   -2.3330 O         1 <0>         0.0000
  47391 WAT       -30.6820  -70.1660   -2.0830 O         1 <0>         0.0000
  47392 WAT       -30.6820  -70.1660   -1.8330 O         1 <0>         0.0000
  47393 WAT       -30.6820  -70.1660   -1.5830 O         1 <0>         0.0000
  47394 WAT       -30.6820  -70.1660   -1.3330 O         1 <0>         0.0000
  47395 WAT       -30.6820  -70.1660   -1.0830 O         1 <0>         0.0000
  47396 WAT       -30.6820  -70.1660   -0.8330 O         1 <0>         0.0000
  47397 WAT       -30.6820  -70.1660   -0.5830 O         1 <0>         0.0000
  47398 WAT       -30.6820  -70.1660   -0.3330 O         1 <0>         0.0000
  47399 WAT       -30.6820  -70.1660   -0.0830 O         1 <0>         0.0000
  47400 WAT       -30.6820  -69.9160   -9.8330 O         1 <0>         0.0000
  47401 WAT       -30.6820  -69.9160   -9.5830 O         1 <0>         0.0000
  47402 WAT       -30.6820  -69.9160   -9.3330 O         1 <0>         0.0000
  47403 WAT       -30.6820  -69.9160   -9.0830 O         1 <0>         0.0001
  47404 WAT       -30.6820  -69.9160   -8.8330 O         1 <0>         0.0002
  47405 WAT       -30.6820  -69.9160   -8.5830 O         1 <0>         0.0003
  47406 WAT       -30.6820  -69.9160   -8.3330 O         1 <0>         0.0007
  47407 WAT       -30.6820  -69.9160   -8.0830 O         1 <0>         0.0021
  47408 WAT       -30.6820  -69.9160   -7.8330 O         1 <0>         0.0060
  47409 WAT       -30.6820  -69.9160   -7.5830 O         1 <0>         0.0124
  47410 WAT       -30.6820  -69.9160   -7.3330 O         1 <0>         0.0178
  47411 WAT       -30.6820  -69.9160   -7.0830 O         1 <0>         0.0176
  47412 WAT       -30.6820  -69.9160   -6.8330 O         1 <0>         0.0121
  47413 WAT       -30.6820  -69.9160   -6.5830 O         1 <0>         0.0058
  47414 WAT       -30.6820  -69.9160   -6.3330 O         1 <0>         0.0021
  47415 WAT       -30.6820  -69.9160   -6.0830 O         1 <0>         0.0010
  47416 WAT       -30.6820  -69.9160   -5.8330 O         1 <0>         0.0008
  47417 WAT       -30.6820  -69.9160   -5.5830 O         1 <0>         0.0007
  47418 WAT       -30.6820  -69.9160   -5.3330 O         1 <0>         0.0006
  47419 WAT       -30.6820  -69.9160   -5.0830 O         1 <0>         0.0006
  47420 WAT       -30.6820  -69.9160   -4.8330 O         1 <0>         0.0007
  47421 WAT       -30.6820  -69.9160   -4.5830 O         1 <0>         0.0006
  47422 WAT       -30.6820  -69.9160   -4.3330 O         1 <0>         0.0004
  47423 WAT       -30.6820  -69.9160   -4.0830 O         1 <0>         0.0001
  47424 WAT       -30.6820  -69.9160   -3.8330 O         1 <0>         0.0000
  47425 WAT       -30.6820  -69.9160   -3.5830 O         1 <0>         0.0000
  47426 WAT       -30.6820  -69.9160   -3.3330 O         1 <0>         0.0000
  47427 WAT       -30.6820  -69.9160   -3.0830 O         1 <0>         0.0000
  47428 WAT       -30.6820  -69.9160   -2.8330 O         1 <0>         0.0000
  47429 WAT       -30.6820  -69.9160   -2.5830 O         1 <0>         0.0000
  47430 WAT       -30.6820  -69.9160   -2.3330 O         1 <0>         0.0000
  47431 WAT       -30.6820  -69.9160   -2.0830 O         1 <0>         0.0000
  47432 WAT       -30.6820  -69.9160   -1.8330 O         1 <0>         0.0000
  47433 WAT       -30.6820  -69.9160   -1.5830 O         1 <0>         0.0000
  47434 WAT       -30.6820  -69.9160   -1.3330 O         1 <0>         0.0000
  47435 WAT       -30.6820  -69.9160   -1.0830 O         1 <0>         0.0000
  47436 WAT       -30.6820  -69.9160   -0.8330 O         1 <0>         0.0000
  47437 WAT       -30.6820  -69.9160   -0.5830 O         1 <0>         0.0000
  47438 WAT       -30.6820  -69.9160   -0.3330 O         1 <0>         0.0000
  47439 WAT       -30.6820  -69.9160   -0.0830 O         1 <0>         0.0000
  47440 WAT       -30.6820  -69.6660   -9.8330 O         1 <0>         0.0000
  47441 WAT       -30.6820  -69.6660   -9.5830 O         1 <0>         0.0000
  47442 WAT       -30.6820  -69.6660   -9.3330 O         1 <0>         0.0000
  47443 WAT       -30.6820  -69.6660   -9.0830 O         1 <0>         0.0001
  47444 WAT       -30.6820  -69.6660   -8.8330 O         1 <0>         0.0003
  47445 WAT       -30.6820  -69.6660   -8.5830 O         1 <0>         0.0008
  47446 WAT       -30.6820  -69.6660   -8.3330 O         1 <0>         0.0024
  47447 WAT       -30.6820  -69.6660   -8.0830 O         1 <0>         0.0083
  47448 WAT       -30.6820  -69.6660   -7.8330 O         1 <0>         0.0229
  47449 WAT       -30.6820  -69.6660   -7.5830 O         1 <0>         0.0459
  47450 WAT       -30.6820  -69.6660   -7.3330 O         1 <0>         0.0647
  47451 WAT       -30.6820  -69.6660   -7.0830 O         1 <0>         0.0640
  47452 WAT       -30.6820  -69.6660   -6.8330 O         1 <0>         0.0446
  47453 WAT       -30.6820  -69.6660   -6.5830 O         1 <0>         0.0219
  47454 WAT       -30.6820  -69.6660   -6.3330 O         1 <0>         0.0077
  47455 WAT       -30.6820  -69.6660   -6.0830 O         1 <0>         0.0022
  47456 WAT       -30.6820  -69.6660   -5.8330 O         1 <0>         0.0009
  47457 WAT       -30.6820  -69.6660   -5.5830 O         1 <0>         0.0006
  47458 WAT       -30.6820  -69.6660   -5.3330 O         1 <0>         0.0004
  47459 WAT       -30.6820  -69.6660   -5.0830 O         1 <0>         0.0004
  47460 WAT       -30.6820  -69.6660   -4.8330 O         1 <0>         0.0004
  47461 WAT       -30.6820  -69.6660   -4.5830 O         1 <0>         0.0003
  47462 WAT       -30.6820  -69.6660   -4.3330 O         1 <0>         0.0002
  47463 WAT       -30.6820  -69.6660   -4.0830 O         1 <0>         0.0001
  47464 WAT       -30.6820  -69.6660   -3.8330 O         1 <0>         0.0000
  47465 WAT       -30.6820  -69.6660   -3.5830 O         1 <0>         0.0000
  47466 WAT       -30.6820  -69.6660   -3.3330 O         1 <0>         0.0000
  47467 WAT       -30.6820  -69.6660   -3.0830 O         1 <0>         0.0000
  47468 WAT       -30.6820  -69.6660   -2.8330 O         1 <0>         0.0000
  47469 WAT       -30.6820  -69.6660   -2.5830 O         1 <0>         0.0000
  47470 WAT       -30.6820  -69.6660   -2.3330 O         1 <0>         0.0000
  47471 WAT       -30.6820  -69.6660   -2.0830 O         1 <0>         0.0000
  47472 WAT       -30.6820  -69.6660   -1.8330 O         1 <0>         0.0000
  47473 WAT       -30.6820  -69.6660   -1.5830 O         1 <0>         0.0000
  47474 WAT       -30.6820  -69.6660   -1.3330 O         1 <0>         0.0000
  47475 WAT       -30.6820  -69.6660   -1.0830 O         1 <0>         0.0000
  47476 WAT       -30.6820  -69.6660   -0.8330 O         1 <0>         0.0000
  47477 WAT       -30.6820  -69.6660   -0.5830 O         1 <0>         0.0000
  47478 WAT       -30.6820  -69.6660   -0.3330 O         1 <0>         0.0000
  47479 WAT       -30.6820  -69.6660   -0.0830 O         1 <0>         0.0000
  47480 WAT       -30.6820  -69.4160   -9.8330 O         1 <0>         0.0000
  47481 WAT       -30.6820  -69.4160   -9.5830 O         1 <0>         0.0000
  47482 WAT       -30.6820  -69.4160   -9.3330 O         1 <0>         0.0001
  47483 WAT       -30.6820  -69.4160   -9.0830 O         1 <0>         0.0002
  47484 WAT       -30.6820  -69.4160   -8.8330 O         1 <0>         0.0006
  47485 WAT       -30.6820  -69.4160   -8.5830 O         1 <0>         0.0017
  47486 WAT       -30.6820  -69.4160   -8.3330 O         1 <0>         0.0054
  47487 WAT       -30.6820  -69.4160   -8.0830 O         1 <0>         0.0187
  47488 WAT       -30.6820  -69.4160   -7.8330 O         1 <0>         0.0516
  47489 WAT       -30.6820  -69.4160   -7.5830 O         1 <0>         0.1034
  47490 WAT       -30.6820  -69.4160   -7.3330 O         1 <0>         0.1466
  47491 WAT       -30.6820  -69.4160   -7.0830 O         1 <0>         0.1456
  47492 WAT       -30.6820  -69.4160   -6.8330 O         1 <0>         0.1017
  47493 WAT       -30.6820  -69.4160   -6.5830 O         1 <0>         0.0502
  47494 WAT       -30.6820  -69.4160   -6.3330 O         1 <0>         0.0175
  47495 WAT       -30.6820  -69.4160   -6.0830 O         1 <0>         0.0044
  47496 WAT       -30.6820  -69.4160   -5.8330 O         1 <0>         0.0011
  47497 WAT       -30.6820  -69.4160   -5.5830 O         1 <0>         0.0004
  47498 WAT       -30.6820  -69.4160   -5.3330 O         1 <0>         0.0003
  47499 WAT       -30.6820  -69.4160   -5.0830 O         1 <0>         0.0002
  47500 WAT       -30.6820  -69.4160   -4.8330 O         1 <0>         0.0001
  47501 WAT       -30.6820  -69.4160   -4.5830 O         1 <0>         0.0001
  47502 WAT       -30.6820  -69.4160   -4.3330 O         1 <0>         0.0001
  47503 WAT       -30.6820  -69.4160   -4.0830 O         1 <0>         0.0000
  47504 WAT       -30.6820  -69.4160   -3.8330 O         1 <0>         0.0000
  47505 WAT       -30.6820  -69.4160   -3.5830 O         1 <0>         0.0000
  47506 WAT       -30.6820  -69.4160   -3.3330 O         1 <0>         0.0000
  47507 WAT       -30.6820  -69.4160   -3.0830 O         1 <0>         0.0000
  47508 WAT       -30.6820  -69.4160   -2.8330 O         1 <0>         0.0000
  47509 WAT       -30.6820  -69.4160   -2.5830 O         1 <0>         0.0000
  47510 WAT       -30.6820  -69.4160   -2.3330 O         1 <0>         0.0000
  47511 WAT       -30.6820  -69.4160   -2.0830 O         1 <0>         0.0000
  47512 WAT       -30.6820  -69.4160   -1.8330 O         1 <0>         0.0000
  47513 WAT       -30.6820  -69.4160   -1.5830 O         1 <0>         0.0000
  47514 WAT       -30.6820  -69.4160   -1.3330 O         1 <0>         0.0000
  47515 WAT       -30.6820  -69.4160   -1.0830 O         1 <0>         0.0000
  47516 WAT       -30.6820  -69.4160   -0.8330 O         1 <0>         0.0000
  47517 WAT       -30.6820  -69.4160   -0.5830 O         1 <0>         0.0000
  47518 WAT       -30.6820  -69.4160   -0.3330 O         1 <0>         0.0000
  47519 WAT       -30.6820  -69.4160   -0.0830 O         1 <0>         0.0000
  47520 WAT       -30.6820  -69.1660   -9.8330 O         1 <0>         0.0000
  47521 WAT       -30.6820  -69.1660   -9.5830 O         1 <0>         0.0000
  47522 WAT       -30.6820  -69.1660   -9.3330 O         1 <0>         0.0001
  47523 WAT       -30.6820  -69.1660   -9.0830 O         1 <0>         0.0003
  47524 WAT       -30.6820  -69.1660   -8.8330 O         1 <0>         0.0008
  47525 WAT       -30.6820  -69.1660   -8.5830 O         1 <0>         0.0022
  47526 WAT       -30.6820  -69.1660   -8.3330 O         1 <0>         0.0073
  47527 WAT       -30.6820  -69.1660   -8.0830 O         1 <0>         0.0259
  47528 WAT       -30.6820  -69.1660   -7.8330 O         1 <0>         0.0722
  47529 WAT       -30.6820  -69.1660   -7.5830 O         1 <0>         0.1462
  47530 WAT       -30.6820  -69.1660   -7.3330 O         1 <0>         0.2090
  47531 WAT       -30.6820  -69.1660   -7.0830 O         1 <0>         0.2092
  47532 WAT       -30.6820  -69.1660   -6.8330 O         1 <0>         0.1467
  47533 WAT       -30.6820  -69.1660   -6.5830 O         1 <0>         0.0725
  47534 WAT       -30.6820  -69.1660   -6.3330 O         1 <0>         0.0253
  47535 WAT       -30.6820  -69.1660   -6.0830 O         1 <0>         0.0061
  47536 WAT       -30.6820  -69.1660   -5.8330 O         1 <0>         0.0011
  47537 WAT       -30.6820  -69.1660   -5.5830 O         1 <0>         0.0003
  47538 WAT       -30.6820  -69.1660   -5.3330 O         1 <0>         0.0001
  47539 WAT       -30.6820  -69.1660   -5.0830 O         1 <0>         0.0001
  47540 WAT       -30.6820  -69.1660   -4.8330 O         1 <0>         0.0000
  47541 WAT       -30.6820  -69.1660   -4.5830 O         1 <0>         0.0000
  47542 WAT       -30.6820  -69.1660   -4.3330 O         1 <0>         0.0000
  47543 WAT       -30.6820  -69.1660   -4.0830 O         1 <0>         0.0000
  47544 WAT       -30.6820  -69.1660   -3.8330 O         1 <0>         0.0000
  47545 WAT       -30.6820  -69.1660   -3.5830 O         1 <0>         0.0000
  47546 WAT       -30.6820  -69.1660   -3.3330 O         1 <0>         0.0000
  47547 WAT       -30.6820  -69.1660   -3.0830 O         1 <0>         0.0000
  47548 WAT       -30.6820  -69.1660   -2.8330 O         1 <0>         0.0000
  47549 WAT       -30.6820  -69.1660   -2.5830 O         1 <0>         0.0000
  47550 WAT       -30.6820  -69.1660   -2.3330 O         1 <0>         0.0000
  47551 WAT       -30.6820  -69.1660   -2.0830 O         1 <0>         0.0000
  47552 WAT       -30.6820  -69.1660   -1.8330 O         1 <0>         0.0000
  47553 WAT       -30.6820  -69.1660   -1.5830 O         1 <0>         0.0000
  47554 WAT       -30.6820  -69.1660   -1.3330 O         1 <0>         0.0000
  47555 WAT       -30.6820  -69.1660   -1.0830 O         1 <0>         0.0000
  47556 WAT       -30.6820  -69.1660   -0.8330 O         1 <0>         0.0000
  47557 WAT       -30.6820  -69.1660   -0.5830 O         1 <0>         0.0000
  47558 WAT       -30.6820  -69.1660   -0.3330 O         1 <0>         0.0000
  47559 WAT       -30.6820  -69.1660   -0.0830 O         1 <0>         0.0000
  47560 WAT       -30.6820  -68.9160   -9.8330 O         1 <0>         0.0000
  47561 WAT       -30.6820  -68.9160   -9.5830 O         1 <0>         0.0000
  47562 WAT       -30.6820  -68.9160   -9.3330 O         1 <0>         0.0001
  47563 WAT       -30.6820  -68.9160   -9.0830 O         1 <0>         0.0003
  47564 WAT       -30.6820  -68.9160   -8.8330 O         1 <0>         0.0007
  47565 WAT       -30.6820  -68.9160   -8.5830 O         1 <0>         0.0017
  47566 WAT       -30.6820  -68.9160   -8.3330 O         1 <0>         0.0059
  47567 WAT       -30.6820  -68.9160   -8.0830 O         1 <0>         0.0219
  47568 WAT       -30.6820  -68.9160   -7.8330 O         1 <0>         0.0625
  47569 WAT       -30.6820  -68.9160   -7.5830 O         1 <0>         0.1280
  47570 WAT       -30.6820  -68.9160   -7.3330 O         1 <0>         0.1847
  47571 WAT       -30.6820  -68.9160   -7.0830 O         1 <0>         0.1863
  47572 WAT       -30.6820  -68.9160   -6.8330 O         1 <0>         0.1314
  47573 WAT       -30.6820  -68.9160   -6.5830 O         1 <0>         0.0650
  47574 WAT       -30.6820  -68.9160   -6.3330 O         1 <0>         0.0225
  47575 WAT       -30.6820  -68.9160   -6.0830 O         1 <0>         0.0053
  47576 WAT       -30.6820  -68.9160   -5.8330 O         1 <0>         0.0009
  47577 WAT       -30.6820  -68.9160   -5.5830 O         1 <0>         0.0001
  47578 WAT       -30.6820  -68.9160   -5.3330 O         1 <0>         0.0000
  47579 WAT       -30.6820  -68.9160   -5.0830 O         1 <0>         0.0000
  47580 WAT       -30.6820  -68.9160   -4.8330 O         1 <0>         0.0000
  47581 WAT       -30.6820  -68.9160   -4.5830 O         1 <0>         0.0000
  47582 WAT       -30.6820  -68.9160   -4.3330 O         1 <0>         0.0000
  47583 WAT       -30.6820  -68.9160   -4.0830 O         1 <0>         0.0000
  47584 WAT       -30.6820  -68.9160   -3.8330 O         1 <0>         0.0000
  47585 WAT       -30.6820  -68.9160   -3.5830 O         1 <0>         0.0000
  47586 WAT       -30.6820  -68.9160   -3.3330 O         1 <0>         0.0000
  47587 WAT       -30.6820  -68.9160   -3.0830 O         1 <0>         0.0000
  47588 WAT       -30.6820  -68.9160   -2.8330 O         1 <0>         0.0000
  47589 WAT       -30.6820  -68.9160   -2.5830 O         1 <0>         0.0000
  47590 WAT       -30.6820  -68.9160   -2.3330 O         1 <0>         0.0000
  47591 WAT       -30.6820  -68.9160   -2.0830 O         1 <0>         0.0000
  47592 WAT       -30.6820  -68.9160   -1.8330 O         1 <0>         0.0000
  47593 WAT       -30.6820  -68.9160   -1.5830 O         1 <0>         0.0000
  47594 WAT       -30.6820  -68.9160   -1.3330 O         1 <0>         0.0000
  47595 WAT       -30.6820  -68.9160   -1.0830 O         1 <0>         0.0000
  47596 WAT       -30.6820  -68.9160   -0.8330 O         1 <0>         0.0000
  47597 WAT       -30.6820  -68.9160   -0.5830 O         1 <0>         0.0000
  47598 WAT       -30.6820  -68.9160   -0.3330 O         1 <0>         0.0000
  47599 WAT       -30.6820  -68.9160   -0.0830 O         1 <0>         0.0000
  47600 WAT       -30.4320  -77.4160   -9.8330 O         1 <0>         0.0000
  47601 WAT       -30.4320  -77.4160   -9.5830 O         1 <0>         0.0000
  47602 WAT       -30.4320  -77.4160   -9.3330 O         1 <0>         0.0000
  47603 WAT       -30.4320  -77.4160   -9.0830 O         1 <0>         0.0000
  47604 WAT       -30.4320  -77.4160   -8.8330 O         1 <0>         0.0000
  47605 WAT       -30.4320  -77.4160   -8.5830 O         1 <0>         0.0000
  47606 WAT       -30.4320  -77.4160   -8.3330 O         1 <0>         0.0000
  47607 WAT       -30.4320  -77.4160   -8.0830 O         1 <0>         0.0000
  47608 WAT       -30.4320  -77.4160   -7.8330 O         1 <0>         0.0000
  47609 WAT       -30.4320  -77.4160   -7.5830 O         1 <0>         0.0000
  47610 WAT       -30.4320  -77.4160   -7.3330 O         1 <0>         0.0000
  47611 WAT       -30.4320  -77.4160   -7.0830 O         1 <0>         0.0000
  47612 WAT       -30.4320  -77.4160   -6.8330 O         1 <0>         0.0000
  47613 WAT       -30.4320  -77.4160   -6.5830 O         1 <0>         0.0000
  47614 WAT       -30.4320  -77.4160   -6.3330 O         1 <0>         0.0000
  47615 WAT       -30.4320  -77.4160   -6.0830 O         1 <0>         0.0000
  47616 WAT       -30.4320  -77.4160   -5.8330 O         1 <0>         0.0000
  47617 WAT       -30.4320  -77.4160   -5.5830 O         1 <0>         0.0000
  47618 WAT       -30.4320  -77.4160   -5.3330 O         1 <0>         0.0000
  47619 WAT       -30.4320  -77.4160   -5.0830 O         1 <0>         0.0000
  47620 WAT       -30.4320  -77.4160   -4.8330 O         1 <0>         0.0000
  47621 WAT       -30.4320  -77.4160   -4.5830 O         1 <0>         0.0000
  47622 WAT       -30.4320  -77.4160   -4.3330 O         1 <0>         0.0000
  47623 WAT       -30.4320  -77.4160   -4.0830 O         1 <0>         0.0000
  47624 WAT       -30.4320  -77.4160   -3.8330 O         1 <0>         0.0000
  47625 WAT       -30.4320  -77.4160   -3.5830 O         1 <0>         0.0000
  47626 WAT       -30.4320  -77.4160   -3.3330 O         1 <0>         0.0000
  47627 WAT       -30.4320  -77.4160   -3.0830 O         1 <0>         0.0000
  47628 WAT       -30.4320  -77.4160   -2.8330 O         1 <0>         0.0000
  47629 WAT       -30.4320  -77.4160   -2.5830 O         1 <0>         0.0000
  47630 WAT       -30.4320  -77.4160   -2.3330 O         1 <0>         0.0000
  47631 WAT       -30.4320  -77.4160   -2.0830 O         1 <0>         0.0000
  47632 WAT       -30.4320  -77.4160   -1.8330 O         1 <0>         0.0000
  47633 WAT       -30.4320  -77.4160   -1.5830 O         1 <0>         0.0000
  47634 WAT       -30.4320  -77.4160   -1.3330 O         1 <0>         0.0000
  47635 WAT       -30.4320  -77.4160   -1.0830 O         1 <0>         0.0000
  47636 WAT       -30.4320  -77.4160   -0.8330 O         1 <0>         0.0000
  47637 WAT       -30.4320  -77.4160   -0.5830 O         1 <0>         0.0000
  47638 WAT       -30.4320  -77.4160   -0.3330 O         1 <0>         0.0000
  47639 WAT       -30.4320  -77.4160   -0.0830 O         1 <0>         0.0000
  47640 WAT       -30.4320  -77.1660   -9.8330 O         1 <0>         0.0000
  47641 WAT       -30.4320  -77.1660   -9.5830 O         1 <0>         0.0000
  47642 WAT       -30.4320  -77.1660   -9.3330 O         1 <0>         0.0000
  47643 WAT       -30.4320  -77.1660   -9.0830 O         1 <0>         0.0000
  47644 WAT       -30.4320  -77.1660   -8.8330 O         1 <0>         0.0000
  47645 WAT       -30.4320  -77.1660   -8.5830 O         1 <0>         0.0000
  47646 WAT       -30.4320  -77.1660   -8.3330 O         1 <0>         0.0000
  47647 WAT       -30.4320  -77.1660   -8.0830 O         1 <0>         0.0000
  47648 WAT       -30.4320  -77.1660   -7.8330 O         1 <0>         0.0000
  47649 WAT       -30.4320  -77.1660   -7.5830 O         1 <0>         0.0000
  47650 WAT       -30.4320  -77.1660   -7.3330 O         1 <0>         0.0000
  47651 WAT       -30.4320  -77.1660   -7.0830 O         1 <0>         0.0000
  47652 WAT       -30.4320  -77.1660   -6.8330 O         1 <0>         0.0000
  47653 WAT       -30.4320  -77.1660   -6.5830 O         1 <0>         0.0000
  47654 WAT       -30.4320  -77.1660   -6.3330 O         1 <0>         0.0000
  47655 WAT       -30.4320  -77.1660   -6.0830 O         1 <0>         0.0000
  47656 WAT       -30.4320  -77.1660   -5.8330 O         1 <0>         0.0000
  47657 WAT       -30.4320  -77.1660   -5.5830 O         1 <0>         0.0000
  47658 WAT       -30.4320  -77.1660   -5.3330 O         1 <0>         0.0000
  47659 WAT       -30.4320  -77.1660   -5.0830 O         1 <0>         0.0000
  47660 WAT       -30.4320  -77.1660   -4.8330 O         1 <0>         0.0000
  47661 WAT       -30.4320  -77.1660   -4.5830 O         1 <0>         0.0000
  47662 WAT       -30.4320  -77.1660   -4.3330 O         1 <0>         0.0000
  47663 WAT       -30.4320  -77.1660   -4.0830 O         1 <0>         0.0000
  47664 WAT       -30.4320  -77.1660   -3.8330 O         1 <0>         0.0000
  47665 WAT       -30.4320  -77.1660   -3.5830 O         1 <0>         0.0000
  47666 WAT       -30.4320  -77.1660   -3.3330 O         1 <0>         0.0000
  47667 WAT       -30.4320  -77.1660   -3.0830 O         1 <0>         0.0000
  47668 WAT       -30.4320  -77.1660   -2.8330 O         1 <0>         0.0000
  47669 WAT       -30.4320  -77.1660   -2.5830 O         1 <0>         0.0000
  47670 WAT       -30.4320  -77.1660   -2.3330 O         1 <0>         0.0000
  47671 WAT       -30.4320  -77.1660   -2.0830 O         1 <0>         0.0000
  47672 WAT       -30.4320  -77.1660   -1.8330 O         1 <0>         0.0000
  47673 WAT       -30.4320  -77.1660   -1.5830 O         1 <0>         0.0000
  47674 WAT       -30.4320  -77.1660   -1.3330 O         1 <0>         0.0000
  47675 WAT       -30.4320  -77.1660   -1.0830 O         1 <0>         0.0000
  47676 WAT       -30.4320  -77.1660   -0.8330 O         1 <0>         0.0000
  47677 WAT       -30.4320  -77.1660   -0.5830 O         1 <0>         0.0000
  47678 WAT       -30.4320  -77.1660   -0.3330 O         1 <0>         0.0000
  47679 WAT       -30.4320  -77.1660   -0.0830 O         1 <0>         0.0000
  47680 WAT       -30.4320  -76.9160   -9.8330 O         1 <0>         0.0000
  47681 WAT       -30.4320  -76.9160   -9.5830 O         1 <0>         0.0000
  47682 WAT       -30.4320  -76.9160   -9.3330 O         1 <0>         0.0000
  47683 WAT       -30.4320  -76.9160   -9.0830 O         1 <0>         0.0000
  47684 WAT       -30.4320  -76.9160   -8.8330 O         1 <0>         0.0000
  47685 WAT       -30.4320  -76.9160   -8.5830 O         1 <0>         0.0000
  47686 WAT       -30.4320  -76.9160   -8.3330 O         1 <0>         0.0000
  47687 WAT       -30.4320  -76.9160   -8.0830 O         1 <0>         0.0000
  47688 WAT       -30.4320  -76.9160   -7.8330 O         1 <0>         0.0000
  47689 WAT       -30.4320  -76.9160   -7.5830 O         1 <0>         0.0000
  47690 WAT       -30.4320  -76.9160   -7.3330 O         1 <0>         0.0000
  47691 WAT       -30.4320  -76.9160   -7.0830 O         1 <0>         0.0000
  47692 WAT       -30.4320  -76.9160   -6.8330 O         1 <0>         0.0000
  47693 WAT       -30.4320  -76.9160   -6.5830 O         1 <0>         0.0000
  47694 WAT       -30.4320  -76.9160   -6.3330 O         1 <0>         0.0000
  47695 WAT       -30.4320  -76.9160   -6.0830 O         1 <0>         0.0000
  47696 WAT       -30.4320  -76.9160   -5.8330 O         1 <0>         0.0000
  47697 WAT       -30.4320  -76.9160   -5.5830 O         1 <0>         0.0000
  47698 WAT       -30.4320  -76.9160   -5.3330 O         1 <0>         0.0000
  47699 WAT       -30.4320  -76.9160   -5.0830 O         1 <0>         0.0000
  47700 WAT       -30.4320  -76.9160   -4.8330 O         1 <0>         0.0000
  47701 WAT       -30.4320  -76.9160   -4.5830 O         1 <0>         0.0000
  47702 WAT       -30.4320  -76.9160   -4.3330 O         1 <0>         0.0000
  47703 WAT       -30.4320  -76.9160   -4.0830 O         1 <0>         0.0000
  47704 WAT       -30.4320  -76.9160   -3.8330 O         1 <0>         0.0000
  47705 WAT       -30.4320  -76.9160   -3.5830 O         1 <0>         0.0000
  47706 WAT       -30.4320  -76.9160   -3.3330 O         1 <0>         0.0000
  47707 WAT       -30.4320  -76.9160   -3.0830 O         1 <0>         0.0000
  47708 WAT       -30.4320  -76.9160   -2.8330 O         1 <0>         0.0000
  47709 WAT       -30.4320  -76.9160   -2.5830 O         1 <0>         0.0000
  47710 WAT       -30.4320  -76.9160   -2.3330 O         1 <0>         0.0000
  47711 WAT       -30.4320  -76.9160   -2.0830 O         1 <0>         0.0000
  47712 WAT       -30.4320  -76.9160   -1.8330 O         1 <0>         0.0000
  47713 WAT       -30.4320  -76.9160   -1.5830 O         1 <0>         0.0000
  47714 WAT       -30.4320  -76.9160   -1.3330 O         1 <0>         0.0000
  47715 WAT       -30.4320  -76.9160   -1.0830 O         1 <0>         0.0000
  47716 WAT       -30.4320  -76.9160   -0.8330 O         1 <0>         0.0000
  47717 WAT       -30.4320  -76.9160   -0.5830 O         1 <0>         0.0000
  47718 WAT       -30.4320  -76.9160   -0.3330 O         1 <0>         0.0000
  47719 WAT       -30.4320  -76.9160   -0.0830 O         1 <0>         0.0000
  47720 WAT       -30.4320  -76.6660   -9.8330 O         1 <0>         0.0000
  47721 WAT       -30.4320  -76.6660   -9.5830 O         1 <0>         0.0000
  47722 WAT       -30.4320  -76.6660   -9.3330 O         1 <0>         0.0000
  47723 WAT       -30.4320  -76.6660   -9.0830 O         1 <0>         0.0000
  47724 WAT       -30.4320  -76.6660   -8.8330 O         1 <0>         0.0000
  47725 WAT       -30.4320  -76.6660   -8.5830 O         1 <0>         0.0000
  47726 WAT       -30.4320  -76.6660   -8.3330 O         1 <0>         0.0000
  47727 WAT       -30.4320  -76.6660   -8.0830 O         1 <0>         0.0000
  47728 WAT       -30.4320  -76.6660   -7.8330 O         1 <0>         0.0000
  47729 WAT       -30.4320  -76.6660   -7.5830 O         1 <0>         0.0000
  47730 WAT       -30.4320  -76.6660   -7.3330 O         1 <0>         0.0000
  47731 WAT       -30.4320  -76.6660   -7.0830 O         1 <0>         0.0000
  47732 WAT       -30.4320  -76.6660   -6.8330 O         1 <0>         0.0000
  47733 WAT       -30.4320  -76.6660   -6.5830 O         1 <0>         0.0000
  47734 WAT       -30.4320  -76.6660   -6.3330 O         1 <0>         0.0000
  47735 WAT       -30.4320  -76.6660   -6.0830 O         1 <0>         0.0000
  47736 WAT       -30.4320  -76.6660   -5.8330 O         1 <0>         0.0000
  47737 WAT       -30.4320  -76.6660   -5.5830 O         1 <0>         0.0000
  47738 WAT       -30.4320  -76.6660   -5.3330 O         1 <0>         0.0000
  47739 WAT       -30.4320  -76.6660   -5.0830 O         1 <0>         0.0000
  47740 WAT       -30.4320  -76.6660   -4.8330 O         1 <0>         0.0000
  47741 WAT       -30.4320  -76.6660   -4.5830 O         1 <0>         0.0000
  47742 WAT       -30.4320  -76.6660   -4.3330 O         1 <0>         0.0000
  47743 WAT       -30.4320  -76.6660   -4.0830 O         1 <0>         0.0000
  47744 WAT       -30.4320  -76.6660   -3.8330 O         1 <0>         0.0000
  47745 WAT       -30.4320  -76.6660   -3.5830 O         1 <0>         0.0000
  47746 WAT       -30.4320  -76.6660   -3.3330 O         1 <0>         0.0000
  47747 WAT       -30.4320  -76.6660   -3.0830 O         1 <0>         0.0000
  47748 WAT       -30.4320  -76.6660   -2.8330 O         1 <0>         0.0000
  47749 WAT       -30.4320  -76.6660   -2.5830 O         1 <0>         0.0000
  47750 WAT       -30.4320  -76.6660   -2.3330 O         1 <0>         0.0000
  47751 WAT       -30.4320  -76.6660   -2.0830 O         1 <0>         0.0000
  47752 WAT       -30.4320  -76.6660   -1.8330 O         1 <0>         0.0000
  47753 WAT       -30.4320  -76.6660   -1.5830 O         1 <0>         0.0000
  47754 WAT       -30.4320  -76.6660   -1.3330 O         1 <0>         0.0000
  47755 WAT       -30.4320  -76.6660   -1.0830 O         1 <0>         0.0000
  47756 WAT       -30.4320  -76.6660   -0.8330 O         1 <0>         0.0000
  47757 WAT       -30.4320  -76.6660   -0.5830 O         1 <0>         0.0000
  47758 WAT       -30.4320  -76.6660   -0.3330 O         1 <0>         0.0000
  47759 WAT       -30.4320  -76.6660   -0.0830 O         1 <0>         0.0000
  47760 WAT       -30.4320  -76.4160   -9.8330 O         1 <0>         0.0000
  47761 WAT       -30.4320  -76.4160   -9.5830 O         1 <0>         0.0000
  47762 WAT       -30.4320  -76.4160   -9.3330 O         1 <0>         0.0000
  47763 WAT       -30.4320  -76.4160   -9.0830 O         1 <0>         0.0000
  47764 WAT       -30.4320  -76.4160   -8.8330 O         1 <0>         0.0000
  47765 WAT       -30.4320  -76.4160   -8.5830 O         1 <0>         0.0000
  47766 WAT       -30.4320  -76.4160   -8.3330 O         1 <0>         0.0000
  47767 WAT       -30.4320  -76.4160   -8.0830 O         1 <0>         0.0000
  47768 WAT       -30.4320  -76.4160   -7.8330 O         1 <0>         0.0000
  47769 WAT       -30.4320  -76.4160   -7.5830 O         1 <0>         0.0000
  47770 WAT       -30.4320  -76.4160   -7.3330 O         1 <0>         0.0000
  47771 WAT       -30.4320  -76.4160   -7.0830 O         1 <0>         0.0000
  47772 WAT       -30.4320  -76.4160   -6.8330 O         1 <0>         0.0000
  47773 WAT       -30.4320  -76.4160   -6.5830 O         1 <0>         0.0000
  47774 WAT       -30.4320  -76.4160   -6.3330 O         1 <0>         0.0000
  47775 WAT       -30.4320  -76.4160   -6.0830 O         1 <0>         0.0000
  47776 WAT       -30.4320  -76.4160   -5.8330 O         1 <0>         0.0000
  47777 WAT       -30.4320  -76.4160   -5.5830 O         1 <0>         0.0000
  47778 WAT       -30.4320  -76.4160   -5.3330 O         1 <0>         0.0000
  47779 WAT       -30.4320  -76.4160   -5.0830 O         1 <0>         0.0000
  47780 WAT       -30.4320  -76.4160   -4.8330 O         1 <0>         0.0000
  47781 WAT       -30.4320  -76.4160   -4.5830 O         1 <0>         0.0000
  47782 WAT       -30.4320  -76.4160   -4.3330 O         1 <0>         0.0000
  47783 WAT       -30.4320  -76.4160   -4.0830 O         1 <0>         0.0000
  47784 WAT       -30.4320  -76.4160   -3.8330 O         1 <0>         0.0000
  47785 WAT       -30.4320  -76.4160   -3.5830 O         1 <0>         0.0000
  47786 WAT       -30.4320  -76.4160   -3.3330 O         1 <0>         0.0000
  47787 WAT       -30.4320  -76.4160   -3.0830 O         1 <0>         0.0000
  47788 WAT       -30.4320  -76.4160   -2.8330 O         1 <0>         0.0000
  47789 WAT       -30.4320  -76.4160   -2.5830 O         1 <0>         0.0000
  47790 WAT       -30.4320  -76.4160   -2.3330 O         1 <0>         0.0000
  47791 WAT       -30.4320  -76.4160   -2.0830 O         1 <0>         0.0000
  47792 WAT       -30.4320  -76.4160   -1.8330 O         1 <0>         0.0000
  47793 WAT       -30.4320  -76.4160   -1.5830 O         1 <0>         0.0000
  47794 WAT       -30.4320  -76.4160   -1.3330 O         1 <0>         0.0000
  47795 WAT       -30.4320  -76.4160   -1.0830 O         1 <0>         0.0000
  47796 WAT       -30.4320  -76.4160   -0.8330 O         1 <0>         0.0000
  47797 WAT       -30.4320  -76.4160   -0.5830 O         1 <0>         0.0000
  47798 WAT       -30.4320  -76.4160   -0.3330 O         1 <0>         0.0000
  47799 WAT       -30.4320  -76.4160   -0.0830 O         1 <0>         0.0000
  47800 WAT       -30.4320  -76.1660   -9.8330 O         1 <0>         0.0000
  47801 WAT       -30.4320  -76.1660   -9.5830 O         1 <0>         0.0000
  47802 WAT       -30.4320  -76.1660   -9.3330 O         1 <0>         0.0000
  47803 WAT       -30.4320  -76.1660   -9.0830 O         1 <0>         0.0000
  47804 WAT       -30.4320  -76.1660   -8.8330 O         1 <0>         0.0000
  47805 WAT       -30.4320  -76.1660   -8.5830 O         1 <0>         0.0000
  47806 WAT       -30.4320  -76.1660   -8.3330 O         1 <0>         0.0000
  47807 WAT       -30.4320  -76.1660   -8.0830 O         1 <0>         0.0000
  47808 WAT       -30.4320  -76.1660   -7.8330 O         1 <0>         0.0000
  47809 WAT       -30.4320  -76.1660   -7.5830 O         1 <0>         0.0000
  47810 WAT       -30.4320  -76.1660   -7.3330 O         1 <0>         0.0000
  47811 WAT       -30.4320  -76.1660   -7.0830 O         1 <0>         0.0000
  47812 WAT       -30.4320  -76.1660   -6.8330 O         1 <0>         0.0000
  47813 WAT       -30.4320  -76.1660   -6.5830 O         1 <0>         0.0000
  47814 WAT       -30.4320  -76.1660   -6.3330 O         1 <0>         0.0000
  47815 WAT       -30.4320  -76.1660   -6.0830 O         1 <0>         0.0000
  47816 WAT       -30.4320  -76.1660   -5.8330 O         1 <0>         0.0000
  47817 WAT       -30.4320  -76.1660   -5.5830 O         1 <0>         0.0000
  47818 WAT       -30.4320  -76.1660   -5.3330 O         1 <0>         0.0000
  47819 WAT       -30.4320  -76.1660   -5.0830 O         1 <0>         0.0000
  47820 WAT       -30.4320  -76.1660   -4.8330 O         1 <0>         0.0000
  47821 WAT       -30.4320  -76.1660   -4.5830 O         1 <0>         0.0000
  47822 WAT       -30.4320  -76.1660   -4.3330 O         1 <0>         0.0000
  47823 WAT       -30.4320  -76.1660   -4.0830 O         1 <0>         0.0000
  47824 WAT       -30.4320  -76.1660   -3.8330 O         1 <0>         0.0000
  47825 WAT       -30.4320  -76.1660   -3.5830 O         1 <0>         0.0000
  47826 WAT       -30.4320  -76.1660   -3.3330 O         1 <0>         0.0000
  47827 WAT       -30.4320  -76.1660   -3.0830 O         1 <0>         0.0000
  47828 WAT       -30.4320  -76.1660   -2.8330 O         1 <0>         0.0000
  47829 WAT       -30.4320  -76.1660   -2.5830 O         1 <0>         0.0000
  47830 WAT       -30.4320  -76.1660   -2.3330 O         1 <0>         0.0000
  47831 WAT       -30.4320  -76.1660   -2.0830 O         1 <0>         0.0000
  47832 WAT       -30.4320  -76.1660   -1.8330 O         1 <0>         0.0000
  47833 WAT       -30.4320  -76.1660   -1.5830 O         1 <0>         0.0000
  47834 WAT       -30.4320  -76.1660   -1.3330 O         1 <0>         0.0000
  47835 WAT       -30.4320  -76.1660   -1.0830 O         1 <0>         0.0000
  47836 WAT       -30.4320  -76.1660   -0.8330 O         1 <0>         0.0000
  47837 WAT       -30.4320  -76.1660   -0.5830 O         1 <0>         0.0000
  47838 WAT       -30.4320  -76.1660   -0.3330 O         1 <0>         0.0000
  47839 WAT       -30.4320  -76.1660   -0.0830 O         1 <0>         0.0000
  47840 WAT       -30.4320  -75.9160   -9.8330 O         1 <0>         0.0000
  47841 WAT       -30.4320  -75.9160   -9.5830 O         1 <0>         0.0000
  47842 WAT       -30.4320  -75.9160   -9.3330 O         1 <0>         0.0000
  47843 WAT       -30.4320  -75.9160   -9.0830 O         1 <0>         0.0000
  47844 WAT       -30.4320  -75.9160   -8.8330 O         1 <0>         0.0000
  47845 WAT       -30.4320  -75.9160   -8.5830 O         1 <0>         0.0000
  47846 WAT       -30.4320  -75.9160   -8.3330 O         1 <0>         0.0000
  47847 WAT       -30.4320  -75.9160   -8.0830 O         1 <0>         0.0000
  47848 WAT       -30.4320  -75.9160   -7.8330 O         1 <0>         0.0000
  47849 WAT       -30.4320  -75.9160   -7.5830 O         1 <0>         0.0000
  47850 WAT       -30.4320  -75.9160   -7.3330 O         1 <0>         0.0000
  47851 WAT       -30.4320  -75.9160   -7.0830 O         1 <0>         0.0000
  47852 WAT       -30.4320  -75.9160   -6.8330 O         1 <0>         0.0000
  47853 WAT       -30.4320  -75.9160   -6.5830 O         1 <0>         0.0000
  47854 WAT       -30.4320  -75.9160   -6.3330 O         1 <0>         0.0000
  47855 WAT       -30.4320  -75.9160   -6.0830 O         1 <0>         0.0000
  47856 WAT       -30.4320  -75.9160   -5.8330 O         1 <0>         0.0000
  47857 WAT       -30.4320  -75.9160   -5.5830 O         1 <0>         0.0000
  47858 WAT       -30.4320  -75.9160   -5.3330 O         1 <0>         0.0000
  47859 WAT       -30.4320  -75.9160   -5.0830 O         1 <0>         0.0000
  47860 WAT       -30.4320  -75.9160   -4.8330 O         1 <0>         0.0000
  47861 WAT       -30.4320  -75.9160   -4.5830 O         1 <0>         0.0000
  47862 WAT       -30.4320  -75.9160   -4.3330 O         1 <0>         0.0000
  47863 WAT       -30.4320  -75.9160   -4.0830 O         1 <0>         0.0000
  47864 WAT       -30.4320  -75.9160   -3.8330 O         1 <0>         0.0000
  47865 WAT       -30.4320  -75.9160   -3.5830 O         1 <0>         0.0000
  47866 WAT       -30.4320  -75.9160   -3.3330 O         1 <0>         0.0000
  47867 WAT       -30.4320  -75.9160   -3.0830 O         1 <0>         0.0000
  47868 WAT       -30.4320  -75.9160   -2.8330 O         1 <0>         0.0000
  47869 WAT       -30.4320  -75.9160   -2.5830 O         1 <0>         0.0000
  47870 WAT       -30.4320  -75.9160   -2.3330 O         1 <0>         0.0000
  47871 WAT       -30.4320  -75.9160   -2.0830 O         1 <0>         0.0000
  47872 WAT       -30.4320  -75.9160   -1.8330 O         1 <0>         0.0000
  47873 WAT       -30.4320  -75.9160   -1.5830 O         1 <0>         0.0000
  47874 WAT       -30.4320  -75.9160   -1.3330 O         1 <0>         0.0000
  47875 WAT       -30.4320  -75.9160   -1.0830 O         1 <0>         0.0000
  47876 WAT       -30.4320  -75.9160   -0.8330 O         1 <0>         0.0000
  47877 WAT       -30.4320  -75.9160   -0.5830 O         1 <0>         0.0000
  47878 WAT       -30.4320  -75.9160   -0.3330 O         1 <0>         0.0000
  47879 WAT       -30.4320  -75.9160   -0.0830 O         1 <0>         0.0000
  47880 WAT       -30.4320  -75.6660   -9.8330 O         1 <0>         0.0000
  47881 WAT       -30.4320  -75.6660   -9.5830 O         1 <0>         0.0000
  47882 WAT       -30.4320  -75.6660   -9.3330 O         1 <0>         0.0000
  47883 WAT       -30.4320  -75.6660   -9.0830 O         1 <0>         0.0000
  47884 WAT       -30.4320  -75.6660   -8.8330 O         1 <0>         0.0000
  47885 WAT       -30.4320  -75.6660   -8.5830 O         1 <0>         0.0000
  47886 WAT       -30.4320  -75.6660   -8.3330 O         1 <0>         0.0000
  47887 WAT       -30.4320  -75.6660   -8.0830 O         1 <0>         0.0000
  47888 WAT       -30.4320  -75.6660   -7.8330 O         1 <0>         0.0000
  47889 WAT       -30.4320  -75.6660   -7.5830 O         1 <0>         0.0000
  47890 WAT       -30.4320  -75.6660   -7.3330 O         1 <0>         0.0000
  47891 WAT       -30.4320  -75.6660   -7.0830 O         1 <0>         0.0000
  47892 WAT       -30.4320  -75.6660   -6.8330 O         1 <0>         0.0000
  47893 WAT       -30.4320  -75.6660   -6.5830 O         1 <0>         0.0000
  47894 WAT       -30.4320  -75.6660   -6.3330 O         1 <0>         0.0000
  47895 WAT       -30.4320  -75.6660   -6.0830 O         1 <0>         0.0000
  47896 WAT       -30.4320  -75.6660   -5.8330 O         1 <0>         0.0000
  47897 WAT       -30.4320  -75.6660   -5.5830 O         1 <0>         0.0000
  47898 WAT       -30.4320  -75.6660   -5.3330 O         1 <0>         0.0000
  47899 WAT       -30.4320  -75.6660   -5.0830 O         1 <0>         0.0000
  47900 WAT       -30.4320  -75.6660   -4.8330 O         1 <0>         0.0000
  47901 WAT       -30.4320  -75.6660   -4.5830 O         1 <0>         0.0000
  47902 WAT       -30.4320  -75.6660   -4.3330 O         1 <0>         0.0000
  47903 WAT       -30.4320  -75.6660   -4.0830 O         1 <0>         0.0000
  47904 WAT       -30.4320  -75.6660   -3.8330 O         1 <0>         0.0000
  47905 WAT       -30.4320  -75.6660   -3.5830 O         1 <0>         0.0000
  47906 WAT       -30.4320  -75.6660   -3.3330 O         1 <0>         0.0000
  47907 WAT       -30.4320  -75.6660   -3.0830 O         1 <0>         0.0000
  47908 WAT       -30.4320  -75.6660   -2.8330 O         1 <0>         0.0000
  47909 WAT       -30.4320  -75.6660   -2.5830 O         1 <0>         0.0000
  47910 WAT       -30.4320  -75.6660   -2.3330 O         1 <0>         0.0000
  47911 WAT       -30.4320  -75.6660   -2.0830 O         1 <0>         0.0000
  47912 WAT       -30.4320  -75.6660   -1.8330 O         1 <0>         0.0000
  47913 WAT       -30.4320  -75.6660   -1.5830 O         1 <0>         0.0000
  47914 WAT       -30.4320  -75.6660   -1.3330 O         1 <0>         0.0000
  47915 WAT       -30.4320  -75.6660   -1.0830 O         1 <0>         0.0000
  47916 WAT       -30.4320  -75.6660   -0.8330 O         1 <0>         0.0000
  47917 WAT       -30.4320  -75.6660   -0.5830 O         1 <0>         0.0000
  47918 WAT       -30.4320  -75.6660   -0.3330 O         1 <0>         0.0000
  47919 WAT       -30.4320  -75.6660   -0.0830 O         1 <0>         0.0000
  47920 WAT       -30.4320  -75.4160   -9.8330 O         1 <0>         0.0000
  47921 WAT       -30.4320  -75.4160   -9.5830 O         1 <0>         0.0000
  47922 WAT       -30.4320  -75.4160   -9.3330 O         1 <0>         0.0000
  47923 WAT       -30.4320  -75.4160   -9.0830 O         1 <0>         0.0000
  47924 WAT       -30.4320  -75.4160   -8.8330 O         1 <0>         0.0000
  47925 WAT       -30.4320  -75.4160   -8.5830 O         1 <0>         0.0000
  47926 WAT       -30.4320  -75.4160   -8.3330 O         1 <0>         0.0000
  47927 WAT       -30.4320  -75.4160   -8.0830 O         1 <0>         0.0000
  47928 WAT       -30.4320  -75.4160   -7.8330 O         1 <0>         0.0000
  47929 WAT       -30.4320  -75.4160   -7.5830 O         1 <0>         0.0000
  47930 WAT       -30.4320  -75.4160   -7.3330 O         1 <0>         0.0000
  47931 WAT       -30.4320  -75.4160   -7.0830 O         1 <0>         0.0000
  47932 WAT       -30.4320  -75.4160   -6.8330 O         1 <0>         0.0000
  47933 WAT       -30.4320  -75.4160   -6.5830 O         1 <0>         0.0000
  47934 WAT       -30.4320  -75.4160   -6.3330 O         1 <0>         0.0000
  47935 WAT       -30.4320  -75.4160   -6.0830 O         1 <0>         0.0000
  47936 WAT       -30.4320  -75.4160   -5.8330 O         1 <0>         0.0000
  47937 WAT       -30.4320  -75.4160   -5.5830 O         1 <0>         0.0000
  47938 WAT       -30.4320  -75.4160   -5.3330 O         1 <0>         0.0000
  47939 WAT       -30.4320  -75.4160   -5.0830 O         1 <0>         0.0000
  47940 WAT       -30.4320  -75.4160   -4.8330 O         1 <0>         0.0000
  47941 WAT       -30.4320  -75.4160   -4.5830 O         1 <0>         0.0000
  47942 WAT       -30.4320  -75.4160   -4.3330 O         1 <0>         0.0000
  47943 WAT       -30.4320  -75.4160   -4.0830 O         1 <0>         0.0000
  47944 WAT       -30.4320  -75.4160   -3.8330 O         1 <0>         0.0000
  47945 WAT       -30.4320  -75.4160   -3.5830 O         1 <0>         0.0000
  47946 WAT       -30.4320  -75.4160   -3.3330 O         1 <0>         0.0000
  47947 WAT       -30.4320  -75.4160   -3.0830 O         1 <0>         0.0000
  47948 WAT       -30.4320  -75.4160   -2.8330 O         1 <0>         0.0000
  47949 WAT       -30.4320  -75.4160   -2.5830 O         1 <0>         0.0000
  47950 WAT       -30.4320  -75.4160   -2.3330 O         1 <0>         0.0000
  47951 WAT       -30.4320  -75.4160   -2.0830 O         1 <0>         0.0000
  47952 WAT       -30.4320  -75.4160   -1.8330 O         1 <0>         0.0000
  47953 WAT       -30.4320  -75.4160   -1.5830 O         1 <0>         0.0000
  47954 WAT       -30.4320  -75.4160   -1.3330 O         1 <0>         0.0000
  47955 WAT       -30.4320  -75.4160   -1.0830 O         1 <0>         0.0000
  47956 WAT       -30.4320  -75.4160   -0.8330 O         1 <0>         0.0000
  47957 WAT       -30.4320  -75.4160   -0.5830 O         1 <0>         0.0000
  47958 WAT       -30.4320  -75.4160   -0.3330 O         1 <0>         0.0000
  47959 WAT       -30.4320  -75.4160   -0.0830 O         1 <0>         0.0000
  47960 WAT       -30.4320  -75.1660   -9.8330 O         1 <0>         0.0000
  47961 WAT       -30.4320  -75.1660   -9.5830 O         1 <0>         0.0000
  47962 WAT       -30.4320  -75.1660   -9.3330 O         1 <0>         0.0000
  47963 WAT       -30.4320  -75.1660   -9.0830 O         1 <0>         0.0000
  47964 WAT       -30.4320  -75.1660   -8.8330 O         1 <0>         0.0000
  47965 WAT       -30.4320  -75.1660   -8.5830 O         1 <0>         0.0000
  47966 WAT       -30.4320  -75.1660   -8.3330 O         1 <0>         0.0000
  47967 WAT       -30.4320  -75.1660   -8.0830 O         1 <0>         0.0000
  47968 WAT       -30.4320  -75.1660   -7.8330 O         1 <0>         0.0000
  47969 WAT       -30.4320  -75.1660   -7.5830 O         1 <0>         0.0000
  47970 WAT       -30.4320  -75.1660   -7.3330 O         1 <0>         0.0000
  47971 WAT       -30.4320  -75.1660   -7.0830 O         1 <0>         0.0000
  47972 WAT       -30.4320  -75.1660   -6.8330 O         1 <0>         0.0000
  47973 WAT       -30.4320  -75.1660   -6.5830 O         1 <0>         0.0000
  47974 WAT       -30.4320  -75.1660   -6.3330 O         1 <0>         0.0000
  47975 WAT       -30.4320  -75.1660   -6.0830 O         1 <0>         0.0000
  47976 WAT       -30.4320  -75.1660   -5.8330 O         1 <0>         0.0000
  47977 WAT       -30.4320  -75.1660   -5.5830 O         1 <0>         0.0000
  47978 WAT       -30.4320  -75.1660   -5.3330 O         1 <0>         0.0000
  47979 WAT       -30.4320  -75.1660   -5.0830 O         1 <0>         0.0000
  47980 WAT       -30.4320  -75.1660   -4.8330 O         1 <0>         0.0000
  47981 WAT       -30.4320  -75.1660   -4.5830 O         1 <0>         0.0000
  47982 WAT       -30.4320  -75.1660   -4.3330 O         1 <0>         0.0000
  47983 WAT       -30.4320  -75.1660   -4.0830 O         1 <0>         0.0000
  47984 WAT       -30.4320  -75.1660   -3.8330 O         1 <0>         0.0000
  47985 WAT       -30.4320  -75.1660   -3.5830 O         1 <0>         0.0000
  47986 WAT       -30.4320  -75.1660   -3.3330 O         1 <0>         0.0000
  47987 WAT       -30.4320  -75.1660   -3.0830 O         1 <0>         0.0000
  47988 WAT       -30.4320  -75.1660   -2.8330 O         1 <0>         0.0000
  47989 WAT       -30.4320  -75.1660   -2.5830 O         1 <0>         0.0000
  47990 WAT       -30.4320  -75.1660   -2.3330 O         1 <0>         0.0000
  47991 WAT       -30.4320  -75.1660   -2.0830 O         1 <0>         0.0000
  47992 WAT       -30.4320  -75.1660   -1.8330 O         1 <0>         0.0000
  47993 WAT       -30.4320  -75.1660   -1.5830 O         1 <0>         0.0000
  47994 WAT       -30.4320  -75.1660   -1.3330 O         1 <0>         0.0000
  47995 WAT       -30.4320  -75.1660   -1.0830 O         1 <0>         0.0000
  47996 WAT       -30.4320  -75.1660   -0.8330 O         1 <0>         0.0000
  47997 WAT       -30.4320  -75.1660   -0.5830 O         1 <0>         0.0000
  47998 WAT       -30.4320  -75.1660   -0.3330 O         1 <0>         0.0000
  47999 WAT       -30.4320  -75.1660   -0.0830 O         1 <0>         0.0000
  48000 WAT       -30.4320  -74.9160   -9.8330 O         1 <0>         0.0000
  48001 WAT       -30.4320  -74.9160   -9.5830 O         1 <0>         0.0000
  48002 WAT       -30.4320  -74.9160   -9.3330 O         1 <0>         0.0000
  48003 WAT       -30.4320  -74.9160   -9.0830 O         1 <0>         0.0000
  48004 WAT       -30.4320  -74.9160   -8.8330 O         1 <0>         0.0000
  48005 WAT       -30.4320  -74.9160   -8.5830 O         1 <0>         0.0000
  48006 WAT       -30.4320  -74.9160   -8.3330 O         1 <0>         0.0000
  48007 WAT       -30.4320  -74.9160   -8.0830 O         1 <0>         0.0000
  48008 WAT       -30.4320  -74.9160   -7.8330 O         1 <0>         0.0000
  48009 WAT       -30.4320  -74.9160   -7.5830 O         1 <0>         0.0000
  48010 WAT       -30.4320  -74.9160   -7.3330 O         1 <0>         0.0000
  48011 WAT       -30.4320  -74.9160   -7.0830 O         1 <0>         0.0000
  48012 WAT       -30.4320  -74.9160   -6.8330 O         1 <0>         0.0000
  48013 WAT       -30.4320  -74.9160   -6.5830 O         1 <0>         0.0000
  48014 WAT       -30.4320  -74.9160   -6.3330 O         1 <0>         0.0000
  48015 WAT       -30.4320  -74.9160   -6.0830 O         1 <0>         0.0000
  48016 WAT       -30.4320  -74.9160   -5.8330 O         1 <0>         0.0000
  48017 WAT       -30.4320  -74.9160   -5.5830 O         1 <0>         0.0000
  48018 WAT       -30.4320  -74.9160   -5.3330 O         1 <0>         0.0000
  48019 WAT       -30.4320  -74.9160   -5.0830 O         1 <0>         0.0000
  48020 WAT       -30.4320  -74.9160   -4.8330 O         1 <0>         0.0000
  48021 WAT       -30.4320  -74.9160   -4.5830 O         1 <0>         0.0000
  48022 WAT       -30.4320  -74.9160   -4.3330 O         1 <0>         0.0000
  48023 WAT       -30.4320  -74.9160   -4.0830 O         1 <0>         0.0000
  48024 WAT       -30.4320  -74.9160   -3.8330 O         1 <0>         0.0000
  48025 WAT       -30.4320  -74.9160   -3.5830 O         1 <0>         0.0000
  48026 WAT       -30.4320  -74.9160   -3.3330 O         1 <0>         0.0000
  48027 WAT       -30.4320  -74.9160   -3.0830 O         1 <0>         0.0000
  48028 WAT       -30.4320  -74.9160   -2.8330 O         1 <0>         0.0000
  48029 WAT       -30.4320  -74.9160   -2.5830 O         1 <0>         0.0000
  48030 WAT       -30.4320  -74.9160   -2.3330 O         1 <0>         0.0000
  48031 WAT       -30.4320  -74.9160   -2.0830 O         1 <0>         0.0000
  48032 WAT       -30.4320  -74.9160   -1.8330 O         1 <0>         0.0000
  48033 WAT       -30.4320  -74.9160   -1.5830 O         1 <0>         0.0000
  48034 WAT       -30.4320  -74.9160   -1.3330 O         1 <0>         0.0000
  48035 WAT       -30.4320  -74.9160   -1.0830 O         1 <0>         0.0000
  48036 WAT       -30.4320  -74.9160   -0.8330 O         1 <0>         0.0000
  48037 WAT       -30.4320  -74.9160   -0.5830 O         1 <0>         0.0000
  48038 WAT       -30.4320  -74.9160   -0.3330 O         1 <0>         0.0000
  48039 WAT       -30.4320  -74.9160   -0.0830 O         1 <0>         0.0000
  48040 WAT       -30.4320  -74.6660   -9.8330 O         1 <0>         0.0000
  48041 WAT       -30.4320  -74.6660   -9.5830 O         1 <0>         0.0000
  48042 WAT       -30.4320  -74.6660   -9.3330 O         1 <0>         0.0000
  48043 WAT       -30.4320  -74.6660   -9.0830 O         1 <0>         0.0000
  48044 WAT       -30.4320  -74.6660   -8.8330 O         1 <0>         0.0000
  48045 WAT       -30.4320  -74.6660   -8.5830 O         1 <0>         0.0000
  48046 WAT       -30.4320  -74.6660   -8.3330 O         1 <0>         0.0000
  48047 WAT       -30.4320  -74.6660   -8.0830 O         1 <0>         0.0000
  48048 WAT       -30.4320  -74.6660   -7.8330 O         1 <0>         0.0000
  48049 WAT       -30.4320  -74.6660   -7.5830 O         1 <0>         0.0000
  48050 WAT       -30.4320  -74.6660   -7.3330 O         1 <0>         0.0000
  48051 WAT       -30.4320  -74.6660   -7.0830 O         1 <0>         0.0000
  48052 WAT       -30.4320  -74.6660   -6.8330 O         1 <0>         0.0000
  48053 WAT       -30.4320  -74.6660   -6.5830 O         1 <0>         0.0000
  48054 WAT       -30.4320  -74.6660   -6.3330 O         1 <0>         0.0000
  48055 WAT       -30.4320  -74.6660   -6.0830 O         1 <0>         0.0000
  48056 WAT       -30.4320  -74.6660   -5.8330 O         1 <0>         0.0000
  48057 WAT       -30.4320  -74.6660   -5.5830 O         1 <0>         0.0000
  48058 WAT       -30.4320  -74.6660   -5.3330 O         1 <0>         0.0000
  48059 WAT       -30.4320  -74.6660   -5.0830 O         1 <0>         0.0000
  48060 WAT       -30.4320  -74.6660   -4.8330 O         1 <0>         0.0000
  48061 WAT       -30.4320  -74.6660   -4.5830 O         1 <0>         0.0000
  48062 WAT       -30.4320  -74.6660   -4.3330 O         1 <0>         0.0000
  48063 WAT       -30.4320  -74.6660   -4.0830 O         1 <0>         0.0000
  48064 WAT       -30.4320  -74.6660   -3.8330 O         1 <0>         0.0000
  48065 WAT       -30.4320  -74.6660   -3.5830 O         1 <0>         0.0000
  48066 WAT       -30.4320  -74.6660   -3.3330 O         1 <0>         0.0000
  48067 WAT       -30.4320  -74.6660   -3.0830 O         1 <0>         0.0000
  48068 WAT       -30.4320  -74.6660   -2.8330 O         1 <0>         0.0000
  48069 WAT       -30.4320  -74.6660   -2.5830 O         1 <0>         0.0000
  48070 WAT       -30.4320  -74.6660   -2.3330 O         1 <0>         0.0000
  48071 WAT       -30.4320  -74.6660   -2.0830 O         1 <0>         0.0000
  48072 WAT       -30.4320  -74.6660   -1.8330 O         1 <0>         0.0000
  48073 WAT       -30.4320  -74.6660   -1.5830 O         1 <0>         0.0000
  48074 WAT       -30.4320  -74.6660   -1.3330 O         1 <0>         0.0000
  48075 WAT       -30.4320  -74.6660   -1.0830 O         1 <0>         0.0000
  48076 WAT       -30.4320  -74.6660   -0.8330 O         1 <0>         0.0000
  48077 WAT       -30.4320  -74.6660   -0.5830 O         1 <0>         0.0000
  48078 WAT       -30.4320  -74.6660   -0.3330 O         1 <0>         0.0000
  48079 WAT       -30.4320  -74.6660   -0.0830 O         1 <0>         0.0000
  48080 WAT       -30.4320  -74.4160   -9.8330 O         1 <0>         0.0000
  48081 WAT       -30.4320  -74.4160   -9.5830 O         1 <0>         0.0000
  48082 WAT       -30.4320  -74.4160   -9.3330 O         1 <0>         0.0000
  48083 WAT       -30.4320  -74.4160   -9.0830 O         1 <0>         0.0000
  48084 WAT       -30.4320  -74.4160   -8.8330 O         1 <0>         0.0000
  48085 WAT       -30.4320  -74.4160   -8.5830 O         1 <0>         0.0000
  48086 WAT       -30.4320  -74.4160   -8.3330 O         1 <0>         0.0000
  48087 WAT       -30.4320  -74.4160   -8.0830 O         1 <0>         0.0000
  48088 WAT       -30.4320  -74.4160   -7.8330 O         1 <0>         0.0000
  48089 WAT       -30.4320  -74.4160   -7.5830 O         1 <0>         0.0000
  48090 WAT       -30.4320  -74.4160   -7.3330 O         1 <0>         0.0000
  48091 WAT       -30.4320  -74.4160   -7.0830 O         1 <0>         0.0000
  48092 WAT       -30.4320  -74.4160   -6.8330 O         1 <0>         0.0000
  48093 WAT       -30.4320  -74.4160   -6.5830 O         1 <0>         0.0000
  48094 WAT       -30.4320  -74.4160   -6.3330 O         1 <0>         0.0000
  48095 WAT       -30.4320  -74.4160   -6.0830 O         1 <0>         0.0000
  48096 WAT       -30.4320  -74.4160   -5.8330 O         1 <0>         0.0000
  48097 WAT       -30.4320  -74.4160   -5.5830 O         1 <0>         0.0000
  48098 WAT       -30.4320  -74.4160   -5.3330 O         1 <0>         0.0000
  48099 WAT       -30.4320  -74.4160   -5.0830 O         1 <0>         0.0000
  48100 WAT       -30.4320  -74.4160   -4.8330 O         1 <0>         0.0000
  48101 WAT       -30.4320  -74.4160   -4.5830 O         1 <0>         0.0000
  48102 WAT       -30.4320  -74.4160   -4.3330 O         1 <0>         0.0000
  48103 WAT       -30.4320  -74.4160   -4.0830 O         1 <0>         0.0000
  48104 WAT       -30.4320  -74.4160   -3.8330 O         1 <0>         0.0000
  48105 WAT       -30.4320  -74.4160   -3.5830 O         1 <0>         0.0000
  48106 WAT       -30.4320  -74.4160   -3.3330 O         1 <0>         0.0000
  48107 WAT       -30.4320  -74.4160   -3.0830 O         1 <0>         0.0000
  48108 WAT       -30.4320  -74.4160   -2.8330 O         1 <0>         0.0000
  48109 WAT       -30.4320  -74.4160   -2.5830 O         1 <0>         0.0000
  48110 WAT       -30.4320  -74.4160   -2.3330 O         1 <0>         0.0000
  48111 WAT       -30.4320  -74.4160   -2.0830 O         1 <0>         0.0000
  48112 WAT       -30.4320  -74.4160   -1.8330 O         1 <0>         0.0000
  48113 WAT       -30.4320  -74.4160   -1.5830 O         1 <0>         0.0000
  48114 WAT       -30.4320  -74.4160   -1.3330 O         1 <0>         0.0000
  48115 WAT       -30.4320  -74.4160   -1.0830 O         1 <0>         0.0000
  48116 WAT       -30.4320  -74.4160   -0.8330 O         1 <0>         0.0000
  48117 WAT       -30.4320  -74.4160   -0.5830 O         1 <0>         0.0000
  48118 WAT       -30.4320  -74.4160   -0.3330 O         1 <0>         0.0000
  48119 WAT       -30.4320  -74.4160   -0.0830 O         1 <0>         0.0000
  48120 WAT       -30.4320  -74.1660   -9.8330 O         1 <0>         0.0000
  48121 WAT       -30.4320  -74.1660   -9.5830 O         1 <0>         0.0000
  48122 WAT       -30.4320  -74.1660   -9.3330 O         1 <0>         0.0000
  48123 WAT       -30.4320  -74.1660   -9.0830 O         1 <0>         0.0000
  48124 WAT       -30.4320  -74.1660   -8.8330 O         1 <0>         0.0000
  48125 WAT       -30.4320  -74.1660   -8.5830 O         1 <0>         0.0000
  48126 WAT       -30.4320  -74.1660   -8.3330 O         1 <0>         0.0000
  48127 WAT       -30.4320  -74.1660   -8.0830 O         1 <0>         0.0000
  48128 WAT       -30.4320  -74.1660   -7.8330 O         1 <0>         0.0000
  48129 WAT       -30.4320  -74.1660   -7.5830 O         1 <0>         0.0000
  48130 WAT       -30.4320  -74.1660   -7.3330 O         1 <0>         0.0000
  48131 WAT       -30.4320  -74.1660   -7.0830 O         1 <0>         0.0000
  48132 WAT       -30.4320  -74.1660   -6.8330 O         1 <0>         0.0000
  48133 WAT       -30.4320  -74.1660   -6.5830 O         1 <0>         0.0000
  48134 WAT       -30.4320  -74.1660   -6.3330 O         1 <0>         0.0000
  48135 WAT       -30.4320  -74.1660   -6.0830 O         1 <0>         0.0000
  48136 WAT       -30.4320  -74.1660   -5.8330 O         1 <0>         0.0000
  48137 WAT       -30.4320  -74.1660   -5.5830 O         1 <0>         0.0000
  48138 WAT       -30.4320  -74.1660   -5.3330 O         1 <0>         0.0000
  48139 WAT       -30.4320  -74.1660   -5.0830 O         1 <0>         0.0000
  48140 WAT       -30.4320  -74.1660   -4.8330 O         1 <0>         0.0001
  48141 WAT       -30.4320  -74.1660   -4.5830 O         1 <0>         0.0001
  48142 WAT       -30.4320  -74.1660   -4.3330 O         1 <0>         0.0002
  48143 WAT       -30.4320  -74.1660   -4.0830 O         1 <0>         0.0001
  48144 WAT       -30.4320  -74.1660   -3.8330 O         1 <0>         0.0000
  48145 WAT       -30.4320  -74.1660   -3.5830 O         1 <0>         0.0000
  48146 WAT       -30.4320  -74.1660   -3.3330 O         1 <0>         0.0000
  48147 WAT       -30.4320  -74.1660   -3.0830 O         1 <0>         0.0000
  48148 WAT       -30.4320  -74.1660   -2.8330 O         1 <0>         0.0000
  48149 WAT       -30.4320  -74.1660   -2.5830 O         1 <0>         0.0000
  48150 WAT       -30.4320  -74.1660   -2.3330 O         1 <0>         0.0000
  48151 WAT       -30.4320  -74.1660   -2.0830 O         1 <0>         0.0000
  48152 WAT       -30.4320  -74.1660   -1.8330 O         1 <0>         0.0000
  48153 WAT       -30.4320  -74.1660   -1.5830 O         1 <0>         0.0000
  48154 WAT       -30.4320  -74.1660   -1.3330 O         1 <0>         0.0000
  48155 WAT       -30.4320  -74.1660   -1.0830 O         1 <0>         0.0000
  48156 WAT       -30.4320  -74.1660   -0.8330 O         1 <0>         0.0000
  48157 WAT       -30.4320  -74.1660   -0.5830 O         1 <0>         0.0000
  48158 WAT       -30.4320  -74.1660   -0.3330 O         1 <0>         0.0000
  48159 WAT       -30.4320  -74.1660   -0.0830 O         1 <0>         0.0000
  48160 WAT       -30.4320  -73.9160   -9.8330 O         1 <0>         0.0000
  48161 WAT       -30.4320  -73.9160   -9.5830 O         1 <0>         0.0000
  48162 WAT       -30.4320  -73.9160   -9.3330 O         1 <0>         0.0000
  48163 WAT       -30.4320  -73.9160   -9.0830 O         1 <0>         0.0000
  48164 WAT       -30.4320  -73.9160   -8.8330 O         1 <0>         0.0000
  48165 WAT       -30.4320  -73.9160   -8.5830 O         1 <0>         0.0000
  48166 WAT       -30.4320  -73.9160   -8.3330 O         1 <0>         0.0000
  48167 WAT       -30.4320  -73.9160   -8.0830 O         1 <0>         0.0000
  48168 WAT       -30.4320  -73.9160   -7.8330 O         1 <0>         0.0000
  48169 WAT       -30.4320  -73.9160   -7.5830 O         1 <0>         0.0000
  48170 WAT       -30.4320  -73.9160   -7.3330 O         1 <0>         0.0000
  48171 WAT       -30.4320  -73.9160   -7.0830 O         1 <0>         0.0000
  48172 WAT       -30.4320  -73.9160   -6.8330 O         1 <0>         0.0000
  48173 WAT       -30.4320  -73.9160   -6.5830 O         1 <0>         0.0000
  48174 WAT       -30.4320  -73.9160   -6.3330 O         1 <0>         0.0000
  48175 WAT       -30.4320  -73.9160   -6.0830 O         1 <0>         0.0000
  48176 WAT       -30.4320  -73.9160   -5.8330 O         1 <0>         0.0000
  48177 WAT       -30.4320  -73.9160   -5.5830 O         1 <0>         0.0000
  48178 WAT       -30.4320  -73.9160   -5.3330 O         1 <0>         0.0001
  48179 WAT       -30.4320  -73.9160   -5.0830 O         1 <0>         0.0003
  48180 WAT       -30.4320  -73.9160   -4.8330 O         1 <0>         0.0009
  48181 WAT       -30.4320  -73.9160   -4.5830 O         1 <0>         0.0014
  48182 WAT       -30.4320  -73.9160   -4.3330 O         1 <0>         0.0015
  48183 WAT       -30.4320  -73.9160   -4.0830 O         1 <0>         0.0010
  48184 WAT       -30.4320  -73.9160   -3.8330 O         1 <0>         0.0004
  48185 WAT       -30.4320  -73.9160   -3.5830 O         1 <0>         0.0001
  48186 WAT       -30.4320  -73.9160   -3.3330 O         1 <0>         0.0000
  48187 WAT       -30.4320  -73.9160   -3.0830 O         1 <0>         0.0000
  48188 WAT       -30.4320  -73.9160   -2.8330 O         1 <0>         0.0000
  48189 WAT       -30.4320  -73.9160   -2.5830 O         1 <0>         0.0000
  48190 WAT       -30.4320  -73.9160   -2.3330 O         1 <0>         0.0000
  48191 WAT       -30.4320  -73.9160   -2.0830 O         1 <0>         0.0000
  48192 WAT       -30.4320  -73.9160   -1.8330 O         1 <0>         0.0000
  48193 WAT       -30.4320  -73.9160   -1.5830 O         1 <0>         0.0000
  48194 WAT       -30.4320  -73.9160   -1.3330 O         1 <0>         0.0000
  48195 WAT       -30.4320  -73.9160   -1.0830 O         1 <0>         0.0000
  48196 WAT       -30.4320  -73.9160   -0.8330 O         1 <0>         0.0000
  48197 WAT       -30.4320  -73.9160   -0.5830 O         1 <0>         0.0000
  48198 WAT       -30.4320  -73.9160   -0.3330 O         1 <0>         0.0000
  48199 WAT       -30.4320  -73.9160   -0.0830 O         1 <0>         0.0000
  48200 WAT       -30.4320  -73.6660   -9.8330 O         1 <0>         0.0000
  48201 WAT       -30.4320  -73.6660   -9.5830 O         1 <0>         0.0000
  48202 WAT       -30.4320  -73.6660   -9.3330 O         1 <0>         0.0000
  48203 WAT       -30.4320  -73.6660   -9.0830 O         1 <0>         0.0000
  48204 WAT       -30.4320  -73.6660   -8.8330 O         1 <0>         0.0000
  48205 WAT       -30.4320  -73.6660   -8.5830 O         1 <0>         0.0000
  48206 WAT       -30.4320  -73.6660   -8.3330 O         1 <0>         0.0000
  48207 WAT       -30.4320  -73.6660   -8.0830 O         1 <0>         0.0000
  48208 WAT       -30.4320  -73.6660   -7.8330 O         1 <0>         0.0000
  48209 WAT       -30.4320  -73.6660   -7.5830 O         1 <0>         0.0000
  48210 WAT       -30.4320  -73.6660   -7.3330 O         1 <0>         0.0000
  48211 WAT       -30.4320  -73.6660   -7.0830 O         1 <0>         0.0000
  48212 WAT       -30.4320  -73.6660   -6.8330 O         1 <0>         0.0000
  48213 WAT       -30.4320  -73.6660   -6.5830 O         1 <0>         0.0000
  48214 WAT       -30.4320  -73.6660   -6.3330 O         1 <0>         0.0000
  48215 WAT       -30.4320  -73.6660   -6.0830 O         1 <0>         0.0000
  48216 WAT       -30.4320  -73.6660   -5.8330 O         1 <0>         0.0000
  48217 WAT       -30.4320  -73.6660   -5.5830 O         1 <0>         0.0002
  48218 WAT       -30.4320  -73.6660   -5.3330 O         1 <0>         0.0010
  48219 WAT       -30.4320  -73.6660   -5.0830 O         1 <0>         0.0032
  48220 WAT       -30.4320  -73.6660   -4.8330 O         1 <0>         0.0065
  48221 WAT       -30.4320  -73.6660   -4.5830 O         1 <0>         0.0090
  48222 WAT       -30.4320  -73.6660   -4.3330 O         1 <0>         0.0087
  48223 WAT       -30.4320  -73.6660   -4.0830 O         1 <0>         0.0057
  48224 WAT       -30.4320  -73.6660   -3.8330 O         1 <0>         0.0024
  48225 WAT       -30.4320  -73.6660   -3.5830 O         1 <0>         0.0006
  48226 WAT       -30.4320  -73.6660   -3.3330 O         1 <0>         0.0001
  48227 WAT       -30.4320  -73.6660   -3.0830 O         1 <0>         0.0000
  48228 WAT       -30.4320  -73.6660   -2.8330 O         1 <0>         0.0000
  48229 WAT       -30.4320  -73.6660   -2.5830 O         1 <0>         0.0000
  48230 WAT       -30.4320  -73.6660   -2.3330 O         1 <0>         0.0000
  48231 WAT       -30.4320  -73.6660   -2.0830 O         1 <0>         0.0000
  48232 WAT       -30.4320  -73.6660   -1.8330 O         1 <0>         0.0000
  48233 WAT       -30.4320  -73.6660   -1.5830 O         1 <0>         0.0000
  48234 WAT       -30.4320  -73.6660   -1.3330 O         1 <0>         0.0000
  48235 WAT       -30.4320  -73.6660   -1.0830 O         1 <0>         0.0000
  48236 WAT       -30.4320  -73.6660   -0.8330 O         1 <0>         0.0000
  48237 WAT       -30.4320  -73.6660   -0.5830 O         1 <0>         0.0000
  48238 WAT       -30.4320  -73.6660   -0.3330 O         1 <0>         0.0000
  48239 WAT       -30.4320  -73.6660   -0.0830 O         1 <0>         0.0000
  48240 WAT       -30.4320  -73.4160   -9.8330 O         1 <0>         0.0000
  48241 WAT       -30.4320  -73.4160   -9.5830 O         1 <0>         0.0000
  48242 WAT       -30.4320  -73.4160   -9.3330 O         1 <0>         0.0000
  48243 WAT       -30.4320  -73.4160   -9.0830 O         1 <0>         0.0000
  48244 WAT       -30.4320  -73.4160   -8.8330 O         1 <0>         0.0000
  48245 WAT       -30.4320  -73.4160   -8.5830 O         1 <0>         0.0000
  48246 WAT       -30.4320  -73.4160   -8.3330 O         1 <0>         0.0000
  48247 WAT       -30.4320  -73.4160   -8.0830 O         1 <0>         0.0000
  48248 WAT       -30.4320  -73.4160   -7.8330 O         1 <0>         0.0000
  48249 WAT       -30.4320  -73.4160   -7.5830 O         1 <0>         0.0000
  48250 WAT       -30.4320  -73.4160   -7.3330 O         1 <0>         0.0000
  48251 WAT       -30.4320  -73.4160   -7.0830 O         1 <0>         0.0000
  48252 WAT       -30.4320  -73.4160   -6.8330 O         1 <0>         0.0000
  48253 WAT       -30.4320  -73.4160   -6.5830 O         1 <0>         0.0000
  48254 WAT       -30.4320  -73.4160   -6.3330 O         1 <0>         0.0000
  48255 WAT       -30.4320  -73.4160   -6.0830 O         1 <0>         0.0000
  48256 WAT       -30.4320  -73.4160   -5.8330 O         1 <0>         0.0003
  48257 WAT       -30.4320  -73.4160   -5.5830 O         1 <0>         0.0018
  48258 WAT       -30.4320  -73.4160   -5.3330 O         1 <0>         0.0065
  48259 WAT       -30.4320  -73.4160   -5.0830 O         1 <0>         0.0161
  48260 WAT       -30.4320  -73.4160   -4.8330 O         1 <0>         0.0280
  48261 WAT       -30.4320  -73.4160   -4.5830 O         1 <0>         0.0352
  48262 WAT       -30.4320  -73.4160   -4.3330 O         1 <0>         0.0323
  48263 WAT       -30.4320  -73.4160   -4.0830 O         1 <0>         0.0209
  48264 WAT       -30.4320  -73.4160   -3.8330 O         1 <0>         0.0091
  48265 WAT       -30.4320  -73.4160   -3.5830 O         1 <0>         0.0026
  48266 WAT       -30.4320  -73.4160   -3.3330 O         1 <0>         0.0004
  48267 WAT       -30.4320  -73.4160   -3.0830 O         1 <0>         0.0000
  48268 WAT       -30.4320  -73.4160   -2.8330 O         1 <0>         0.0000
  48269 WAT       -30.4320  -73.4160   -2.5830 O         1 <0>         0.0000
  48270 WAT       -30.4320  -73.4160   -2.3330 O         1 <0>         0.0000
  48271 WAT       -30.4320  -73.4160   -2.0830 O         1 <0>         0.0000
  48272 WAT       -30.4320  -73.4160   -1.8330 O         1 <0>         0.0000
  48273 WAT       -30.4320  -73.4160   -1.5830 O         1 <0>         0.0000
  48274 WAT       -30.4320  -73.4160   -1.3330 O         1 <0>         0.0000
  48275 WAT       -30.4320  -73.4160   -1.0830 O         1 <0>         0.0000
  48276 WAT       -30.4320  -73.4160   -0.8330 O         1 <0>         0.0000
  48277 WAT       -30.4320  -73.4160   -0.5830 O         1 <0>         0.0000
  48278 WAT       -30.4320  -73.4160   -0.3330 O         1 <0>         0.0000
  48279 WAT       -30.4320  -73.4160   -0.0830 O         1 <0>         0.0000
  48280 WAT       -30.4320  -73.1660   -9.8330 O         1 <0>         0.0000
  48281 WAT       -30.4320  -73.1660   -9.5830 O         1 <0>         0.0000
  48282 WAT       -30.4320  -73.1660   -9.3330 O         1 <0>         0.0000
  48283 WAT       -30.4320  -73.1660   -9.0830 O         1 <0>         0.0000
  48284 WAT       -30.4320  -73.1660   -8.8330 O         1 <0>         0.0000
  48285 WAT       -30.4320  -73.1660   -8.5830 O         1 <0>         0.0000
  48286 WAT       -30.4320  -73.1660   -8.3330 O         1 <0>         0.0001
  48287 WAT       -30.4320  -73.1660   -8.0830 O         1 <0>         0.0003
  48288 WAT       -30.4320  -73.1660   -7.8330 O         1 <0>         0.0005
  48289 WAT       -30.4320  -73.1660   -7.5830 O         1 <0>         0.0004
  48290 WAT       -30.4320  -73.1660   -7.3330 O         1 <0>         0.0002
  48291 WAT       -30.4320  -73.1660   -7.0830 O         1 <0>         0.0000
  48292 WAT       -30.4320  -73.1660   -6.8330 O         1 <0>         0.0000
  48293 WAT       -30.4320  -73.1660   -6.5830 O         1 <0>         0.0000
  48294 WAT       -30.4320  -73.1660   -6.3330 O         1 <0>         0.0000
  48295 WAT       -30.4320  -73.1660   -6.0830 O         1 <0>         0.0002
  48296 WAT       -30.4320  -73.1660   -5.8330 O         1 <0>         0.0016
  48297 WAT       -30.4320  -73.1660   -5.5830 O         1 <0>         0.0075
  48298 WAT       -30.4320  -73.1660   -5.3330 O         1 <0>         0.0232
  48299 WAT       -30.4320  -73.1660   -5.0830 O         1 <0>         0.0502
  48300 WAT       -30.4320  -73.1660   -4.8330 O         1 <0>         0.0791
  48301 WAT       -30.4320  -73.1660   -4.5830 O         1 <0>         0.0932
  48302 WAT       -30.4320  -73.1660   -4.3330 O         1 <0>         0.0814
  48303 WAT       -30.4320  -73.1660   -4.0830 O         1 <0>         0.0513
  48304 WAT       -30.4320  -73.1660   -3.8330 O         1 <0>         0.0226
  48305 WAT       -30.4320  -73.1660   -3.5830 O         1 <0>         0.0067
  48306 WAT       -30.4320  -73.1660   -3.3330 O         1 <0>         0.0012
  48307 WAT       -30.4320  -73.1660   -3.0830 O         1 <0>         0.0001
  48308 WAT       -30.4320  -73.1660   -2.8330 O         1 <0>         0.0000
  48309 WAT       -30.4320  -73.1660   -2.5830 O         1 <0>         0.0000
  48310 WAT       -30.4320  -73.1660   -2.3330 O         1 <0>         0.0000
  48311 WAT       -30.4320  -73.1660   -2.0830 O         1 <0>         0.0000
  48312 WAT       -30.4320  -73.1660   -1.8330 O         1 <0>         0.0000
  48313 WAT       -30.4320  -73.1660   -1.5830 O         1 <0>         0.0000
  48314 WAT       -30.4320  -73.1660   -1.3330 O         1 <0>         0.0000
  48315 WAT       -30.4320  -73.1660   -1.0830 O         1 <0>         0.0000
  48316 WAT       -30.4320  -73.1660   -0.8330 O         1 <0>         0.0000
  48317 WAT       -30.4320  -73.1660   -0.5830 O         1 <0>         0.0000
  48318 WAT       -30.4320  -73.1660   -0.3330 O         1 <0>         0.0000
  48319 WAT       -30.4320  -73.1660   -0.0830 O         1 <0>         0.0000
  48320 WAT       -30.4320  -72.9160   -9.8330 O         1 <0>         0.0000
  48321 WAT       -30.4320  -72.9160   -9.5830 O         1 <0>         0.0000
  48322 WAT       -30.4320  -72.9160   -9.3330 O         1 <0>         0.0000
  48323 WAT       -30.4320  -72.9160   -9.0830 O         1 <0>         0.0000
  48324 WAT       -30.4320  -72.9160   -8.8330 O         1 <0>         0.0000
  48325 WAT       -30.4320  -72.9160   -8.5830 O         1 <0>         0.0003
  48326 WAT       -30.4320  -72.9160   -8.3330 O         1 <0>         0.0021
  48327 WAT       -30.4320  -72.9160   -8.0830 O         1 <0>         0.0054
  48328 WAT       -30.4320  -72.9160   -7.8330 O         1 <0>         0.0072
  48329 WAT       -30.4320  -72.9160   -7.5830 O         1 <0>         0.0056
  48330 WAT       -30.4320  -72.9160   -7.3330 O         1 <0>         0.0025
  48331 WAT       -30.4320  -72.9160   -7.0830 O         1 <0>         0.0007
  48332 WAT       -30.4320  -72.9160   -6.8330 O         1 <0>         0.0002
  48333 WAT       -30.4320  -72.9160   -6.5830 O         1 <0>         0.0001
  48334 WAT       -30.4320  -72.9160   -6.3330 O         1 <0>         0.0001
  48335 WAT       -30.4320  -72.9160   -6.0830 O         1 <0>         0.0008
  48336 WAT       -30.4320  -72.9160   -5.8330 O         1 <0>         0.0048
  48337 WAT       -30.4320  -72.9160   -5.5830 O         1 <0>         0.0193
  48338 WAT       -30.4320  -72.9160   -5.3330 O         1 <0>         0.0535
  48339 WAT       -30.4320  -72.9160   -5.0830 O         1 <0>         0.1065
  48340 WAT       -30.4320  -72.9160   -4.8330 O         1 <0>         0.1571
  48341 WAT       -30.4320  -72.9160   -4.5830 O         1 <0>         0.1741
  48342 WAT       -30.4320  -72.9160   -4.3330 O         1 <0>         0.1443
  48343 WAT       -30.4320  -72.9160   -4.0830 O         1 <0>         0.0879
  48344 WAT       -30.4320  -72.9160   -3.8330 O         1 <0>         0.0381
  48345 WAT       -30.4320  -72.9160   -3.5830 O         1 <0>         0.0115
  48346 WAT       -30.4320  -72.9160   -3.3330 O         1 <0>         0.0022
  48347 WAT       -30.4320  -72.9160   -3.0830 O         1 <0>         0.0002
  48348 WAT       -30.4320  -72.9160   -2.8330 O         1 <0>         0.0000
  48349 WAT       -30.4320  -72.9160   -2.5830 O         1 <0>         0.0000
  48350 WAT       -30.4320  -72.9160   -2.3330 O         1 <0>         0.0000
  48351 WAT       -30.4320  -72.9160   -2.0830 O         1 <0>         0.0000
  48352 WAT       -30.4320  -72.9160   -1.8330 O         1 <0>         0.0000
  48353 WAT       -30.4320  -72.9160   -1.5830 O         1 <0>         0.0000
  48354 WAT       -30.4320  -72.9160   -1.3330 O         1 <0>         0.0000
  48355 WAT       -30.4320  -72.9160   -1.0830 O         1 <0>         0.0000
  48356 WAT       -30.4320  -72.9160   -0.8330 O         1 <0>         0.0000
  48357 WAT       -30.4320  -72.9160   -0.5830 O         1 <0>         0.0000
  48358 WAT       -30.4320  -72.9160   -0.3330 O         1 <0>         0.0000
  48359 WAT       -30.4320  -72.9160   -0.0830 O         1 <0>         0.0000
  48360 WAT       -30.4320  -72.6660   -9.8330 O         1 <0>         0.0000
  48361 WAT       -30.4320  -72.6660   -9.5830 O         1 <0>         0.0000
  48362 WAT       -30.4320  -72.6660   -9.3330 O         1 <0>         0.0000
  48363 WAT       -30.4320  -72.6660   -9.0830 O         1 <0>         0.0000
  48364 WAT       -30.4320  -72.6660   -8.8330 O         1 <0>         0.0003
  48365 WAT       -30.4320  -72.6660   -8.5830 O         1 <0>         0.0047
  48366 WAT       -30.4320  -72.6660   -8.3330 O         1 <0>         0.0189
  48367 WAT       -30.4320  -72.6660   -8.0830 O         1 <0>         0.0379
  48368 WAT       -30.4320  -72.6660   -7.8330 O         1 <0>         0.0458
  48369 WAT       -30.4320  -72.6660   -7.5830 O         1 <0>         0.0346
  48370 WAT       -30.4320  -72.6660   -7.3330 O         1 <0>         0.0164
  48371 WAT       -30.4320  -72.6660   -7.0830 O         1 <0>         0.0048
  48372 WAT       -30.4320  -72.6660   -6.8330 O         1 <0>         0.0010
  48373 WAT       -30.4320  -72.6660   -6.5830 O         1 <0>         0.0003
  48374 WAT       -30.4320  -72.6660   -6.3330 O         1 <0>         0.0003
  48375 WAT       -30.4320  -72.6660   -6.0830 O         1 <0>         0.0017
  48376 WAT       -30.4320  -72.6660   -5.8330 O         1 <0>         0.0090
  48377 WAT       -30.4320  -72.6660   -5.5830 O         1 <0>         0.0331
  48378 WAT       -30.4320  -72.6660   -5.3330 O         1 <0>         0.0858
  48379 WAT       -30.4320  -72.6660   -5.0830 O         1 <0>         0.1617
  48380 WAT       -30.4320  -72.6660   -4.8330 O         1 <0>         0.2253
  48381 WAT       -30.4320  -72.6660   -4.5830 O         1 <0>         0.2348
  48382 WAT       -30.4320  -72.6660   -4.3330 O         1 <0>         0.1837
  48383 WAT       -30.4320  -72.6660   -4.0830 O         1 <0>         0.1069
  48384 WAT       -30.4320  -72.6660   -3.8330 O         1 <0>         0.0453
  48385 WAT       -30.4320  -72.6660   -3.5830 O         1 <0>         0.0137
  48386 WAT       -30.4320  -72.6660   -3.3330 O         1 <0>         0.0027
  48387 WAT       -30.4320  -72.6660   -3.0830 O         1 <0>         0.0003
  48388 WAT       -30.4320  -72.6660   -2.8330 O         1 <0>         0.0000
  48389 WAT       -30.4320  -72.6660   -2.5830 O         1 <0>         0.0000
  48390 WAT       -30.4320  -72.6660   -2.3330 O         1 <0>         0.0000
  48391 WAT       -30.4320  -72.6660   -2.0830 O         1 <0>         0.0000
  48392 WAT       -30.4320  -72.6660   -1.8330 O         1 <0>         0.0000
  48393 WAT       -30.4320  -72.6660   -1.5830 O         1 <0>         0.0000
  48394 WAT       -30.4320  -72.6660   -1.3330 O         1 <0>         0.0000
  48395 WAT       -30.4320  -72.6660   -1.0830 O         1 <0>         0.0000
  48396 WAT       -30.4320  -72.6660   -0.8330 O         1 <0>         0.0000
  48397 WAT       -30.4320  -72.6660   -0.5830 O         1 <0>         0.0000
  48398 WAT       -30.4320  -72.6660   -0.3330 O         1 <0>         0.0000
  48399 WAT       -30.4320  -72.6660   -0.0830 O         1 <0>         0.0000
  48400 WAT       -30.4320  -72.4160   -9.8330 O         1 <0>         0.0000
  48401 WAT       -30.4320  -72.4160   -9.5830 O         1 <0>         0.0000
  48402 WAT       -30.4320  -72.4160   -9.3330 O         1 <0>         0.0000
  48403 WAT       -30.4320  -72.4160   -9.0830 O         1 <0>         0.0000
  48404 WAT       -30.4320  -72.4160   -8.8330 O         1 <0>         0.0036
  48405 WAT       -30.4320  -72.4160   -8.5830 O         1 <0>         0.0257
  48406 WAT       -30.4320  -72.4160   -8.3330 O         1 <0>         0.0783
  48407 WAT       -30.4320  -72.4160   -8.0830 O         1 <0>         0.1425
  48408 WAT       -30.4320  -72.4160   -7.8330 O         1 <0>         0.1638
  48409 WAT       -30.4320  -72.4160   -7.5830 O         1 <0>         0.1209
  48410 WAT       -30.4320  -72.4160   -7.3330 O         1 <0>         0.0578
  48411 WAT       -30.4320  -72.4160   -7.0830 O         1 <0>         0.0178
  48412 WAT       -30.4320  -72.4160   -6.8330 O         1 <0>         0.0037
  48413 WAT       -30.4320  -72.4160   -6.5830 O         1 <0>         0.0009
  48414 WAT       -30.4320  -72.4160   -6.3330 O         1 <0>         0.0007
  48415 WAT       -30.4320  -72.4160   -6.0830 O         1 <0>         0.0025
  48416 WAT       -30.4320  -72.4160   -5.8330 O         1 <0>         0.0117
  48417 WAT       -30.4320  -72.4160   -5.5830 O         1 <0>         0.0406
  48418 WAT       -30.4320  -72.4160   -5.3330 O         1 <0>         0.1002
  48419 WAT       -30.4320  -72.4160   -5.0830 O         1 <0>         0.1801
  48420 WAT       -30.4320  -72.4160   -4.8330 O         1 <0>         0.2381
  48421 WAT       -30.4320  -72.4160   -4.5830 O         1 <0>         0.2337
  48422 WAT       -30.4320  -72.4160   -4.3330 O         1 <0>         0.1720
  48423 WAT       -30.4320  -72.4160   -4.0830 O         1 <0>         0.0951
  48424 WAT       -30.4320  -72.4160   -3.8330 O         1 <0>         0.0390
  48425 WAT       -30.4320  -72.4160   -3.5830 O         1 <0>         0.0117
  48426 WAT       -30.4320  -72.4160   -3.3330 O         1 <0>         0.0024
  48427 WAT       -30.4320  -72.4160   -3.0830 O         1 <0>         0.0003
  48428 WAT       -30.4320  -72.4160   -2.8330 O         1 <0>         0.0000
  48429 WAT       -30.4320  -72.4160   -2.5830 O         1 <0>         0.0000
  48430 WAT       -30.4320  -72.4160   -2.3330 O         1 <0>         0.0000
  48431 WAT       -30.4320  -72.4160   -2.0830 O         1 <0>         0.0000
  48432 WAT       -30.4320  -72.4160   -1.8330 O         1 <0>         0.0000
  48433 WAT       -30.4320  -72.4160   -1.5830 O         1 <0>         0.0000
  48434 WAT       -30.4320  -72.4160   -1.3330 O         1 <0>         0.0000
  48435 WAT       -30.4320  -72.4160   -1.0830 O         1 <0>         0.0000
  48436 WAT       -30.4320  -72.4160   -0.8330 O         1 <0>         0.0000
  48437 WAT       -30.4320  -72.4160   -0.5830 O         1 <0>         0.0000
  48438 WAT       -30.4320  -72.4160   -0.3330 O         1 <0>         0.0000
  48439 WAT       -30.4320  -72.4160   -0.0830 O         1 <0>         0.0000
  48440 WAT       -30.4320  -72.1660   -9.8330 O         1 <0>         0.0000
  48441 WAT       -30.4320  -72.1660   -9.5830 O         1 <0>         0.0000
  48442 WAT       -30.4320  -72.1660   -9.3330 O         1 <0>         0.0000
  48443 WAT       -30.4320  -72.1660   -9.0830 O         1 <0>         0.0008
  48444 WAT       -30.4320  -72.1660   -8.8330 O         1 <0>         0.0146
  48445 WAT       -30.4320  -72.1660   -8.5830 O         1 <0>         0.0724
  48446 WAT       -30.4320  -72.1660   -8.3330 O         1 <0>         0.1990
  48447 WAT       -30.4320  -72.1660   -8.0830 O         1 <0>         0.3440
  48448 WAT       -30.4320  -72.1660   -7.8330 O         1 <0>         0.3802
  48449 WAT       -30.4320  -72.1660   -7.5830 O         1 <0>         0.2717
  48450 WAT       -30.4320  -72.1660   -7.3330 O         1 <0>         0.1276
  48451 WAT       -30.4320  -72.1660   -7.0830 O         1 <0>         0.0399
  48452 WAT       -30.4320  -72.1660   -6.8330 O         1 <0>         0.0084
  48453 WAT       -30.4320  -72.1660   -6.5830 O         1 <0>         0.0019
  48454 WAT       -30.4320  -72.1660   -6.3330 O         1 <0>         0.0010
  48455 WAT       -30.4320  -72.1660   -6.0830 O         1 <0>         0.0027
  48456 WAT       -30.4320  -72.1660   -5.8330 O         1 <0>         0.0112
  48457 WAT       -30.4320  -72.1660   -5.5830 O         1 <0>         0.0369
  48458 WAT       -30.4320  -72.1660   -5.3330 O         1 <0>         0.0876
  48459 WAT       -30.4320  -72.1660   -5.0830 O         1 <0>         0.1507
  48460 WAT       -30.4320  -72.1660   -4.8330 O         1 <0>         0.1896
  48461 WAT       -30.4320  -72.1660   -4.5830 O         1 <0>         0.1756
  48462 WAT       -30.4320  -72.1660   -4.3330 O         1 <0>         0.1216
  48463 WAT       -30.4320  -72.1660   -4.0830 O         1 <0>         0.0636
  48464 WAT       -30.4320  -72.1660   -3.8330 O         1 <0>         0.0252
  48465 WAT       -30.4320  -72.1660   -3.5830 O         1 <0>         0.0075
  48466 WAT       -30.4320  -72.1660   -3.3330 O         1 <0>         0.0017
  48467 WAT       -30.4320  -72.1660   -3.0830 O         1 <0>         0.0003
  48468 WAT       -30.4320  -72.1660   -2.8330 O         1 <0>         0.0000
  48469 WAT       -30.4320  -72.1660   -2.5830 O         1 <0>         0.0000
  48470 WAT       -30.4320  -72.1660   -2.3330 O         1 <0>         0.0000
  48471 WAT       -30.4320  -72.1660   -2.0830 O         1 <0>         0.0000
  48472 WAT       -30.4320  -72.1660   -1.8330 O         1 <0>         0.0000
  48473 WAT       -30.4320  -72.1660   -1.5830 O         1 <0>         0.0000
  48474 WAT       -30.4320  -72.1660   -1.3330 O         1 <0>         0.0000
  48475 WAT       -30.4320  -72.1660   -1.0830 O         1 <0>         0.0000
  48476 WAT       -30.4320  -72.1660   -0.8330 O         1 <0>         0.0000
  48477 WAT       -30.4320  -72.1660   -0.5830 O         1 <0>         0.0000
  48478 WAT       -30.4320  -72.1660   -0.3330 O         1 <0>         0.0000
  48479 WAT       -30.4320  -72.1660   -0.0830 O         1 <0>         0.0000
  48480 WAT       -30.4320  -71.9160   -9.8330 O         1 <0>         0.0000
  48481 WAT       -30.4320  -71.9160   -9.5830 O         1 <0>         0.0000
  48482 WAT       -30.4320  -71.9160   -9.3330 O         1 <0>         0.0000
  48483 WAT       -30.4320  -71.9160   -9.0830 O         1 <0>         0.0029
  48484 WAT       -30.4320  -71.9160   -8.8330 O         1 <0>         0.0304
  48485 WAT       -30.4320  -71.9160   -8.5830 O         1 <0>         0.1300
  48486 WAT       -30.4320  -71.9160   -8.3330 O         1 <0>         0.3362
  48487 WAT       -30.4320  -71.9160   -8.0830 O         1 <0>         0.5545
  48488 WAT       -30.4320  -71.9160   -7.8330 O         1 <0>         0.5885
  48489 WAT       -30.4320  -71.9160   -7.5830 O         1 <0>         0.4063
  48490 WAT       -30.4320  -71.9160   -7.3330 O         1 <0>         0.1860
  48491 WAT       -30.4320  -71.9160   -7.0830 O         1 <0>         0.0577
  48492 WAT       -30.4320  -71.9160   -6.8330 O         1 <0>         0.0122
  48493 WAT       -30.4320  -71.9160   -6.5830 O         1 <0>         0.0027
  48494 WAT       -30.4320  -71.9160   -6.3330 O         1 <0>         0.0012
  48495 WAT       -30.4320  -71.9160   -6.0830 O         1 <0>         0.0022
  48496 WAT       -30.4320  -71.9160   -5.8330 O         1 <0>         0.0082
  48497 WAT       -30.4320  -71.9160   -5.5830 O         1 <0>         0.0260
  48498 WAT       -30.4320  -71.9160   -5.3330 O         1 <0>         0.0595
  48499 WAT       -30.4320  -71.9160   -5.0830 O         1 <0>         0.0980
  48500 WAT       -30.4320  -71.9160   -4.8330 O         1 <0>         0.1171
  48501 WAT       -30.4320  -71.9160   -4.5830 O         1 <0>         0.1025
  48502 WAT       -30.4320  -71.9160   -4.3330 O         1 <0>         0.0666
  48503 WAT       -30.4320  -71.9160   -4.0830 O         1 <0>         0.0328
  48504 WAT       -30.4320  -71.9160   -3.8330 O         1 <0>         0.0126
  48505 WAT       -30.4320  -71.9160   -3.5830 O         1 <0>         0.0038
  48506 WAT       -30.4320  -71.9160   -3.3330 O         1 <0>         0.0010
  48507 WAT       -30.4320  -71.9160   -3.0830 O         1 <0>         0.0003
  48508 WAT       -30.4320  -71.9160   -2.8330 O         1 <0>         0.0001
  48509 WAT       -30.4320  -71.9160   -2.5830 O         1 <0>         0.0000
  48510 WAT       -30.4320  -71.9160   -2.3330 O         1 <0>         0.0000
  48511 WAT       -30.4320  -71.9160   -2.0830 O         1 <0>         0.0000
  48512 WAT       -30.4320  -71.9160   -1.8330 O         1 <0>         0.0000
  48513 WAT       -30.4320  -71.9160   -1.5830 O         1 <0>         0.0000
  48514 WAT       -30.4320  -71.9160   -1.3330 O         1 <0>         0.0000
  48515 WAT       -30.4320  -71.9160   -1.0830 O         1 <0>         0.0000
  48516 WAT       -30.4320  -71.9160   -0.8330 O         1 <0>         0.0000
  48517 WAT       -30.4320  -71.9160   -0.5830 O         1 <0>         0.0000
  48518 WAT       -30.4320  -71.9160   -0.3330 O         1 <0>         0.0000
  48519 WAT       -30.4320  -71.9160   -0.0830 O         1 <0>         0.0000
  48520 WAT       -30.4320  -71.6660   -9.8330 O         1 <0>         0.0000
  48521 WAT       -30.4320  -71.6660   -9.5830 O         1 <0>         0.0000
  48522 WAT       -30.4320  -71.6660   -9.3330 O         1 <0>         0.0002
  48523 WAT       -30.4320  -71.6660   -9.0830 O         1 <0>         0.0049
  48524 WAT       -30.4320  -71.6660   -8.8330 O         1 <0>         0.0401
  48525 WAT       -30.4320  -71.6660   -8.5830 O         1 <0>         0.1578
  48526 WAT       -30.4320  -71.6660   -8.3330 O         1 <0>         0.3849
  48527 WAT       -30.4320  -71.6660   -8.0830 O         1 <0>         0.6034
  48528 WAT       -30.4320  -71.6660   -7.8330 O         1 <0>         0.6133
  48529 WAT       -30.4320  -71.6660   -7.5830 O         1 <0>         0.4087
  48530 WAT       -30.4320  -71.6660   -7.3330 O         1 <0>         0.1823
  48531 WAT       -30.4320  -71.6660   -7.0830 O         1 <0>         0.0554
  48532 WAT       -30.4320  -71.6660   -6.8330 O         1 <0>         0.0116
  48533 WAT       -30.4320  -71.6660   -6.5830 O         1 <0>         0.0027
  48534 WAT       -30.4320  -71.6660   -6.3330 O         1 <0>         0.0012
  48535 WAT       -30.4320  -71.6660   -6.0830 O         1 <0>         0.0015
  48536 WAT       -30.4320  -71.6660   -5.8330 O         1 <0>         0.0050
  48537 WAT       -30.4320  -71.6660   -5.5830 O         1 <0>         0.0150
  48538 WAT       -30.4320  -71.6660   -5.3330 O         1 <0>         0.0332
  48539 WAT       -30.4320  -71.6660   -5.0830 O         1 <0>         0.0521
  48540 WAT       -30.4320  -71.6660   -4.8330 O         1 <0>         0.0588
  48541 WAT       -30.4320  -71.6660   -4.5830 O         1 <0>         0.0481
  48542 WAT       -30.4320  -71.6660   -4.3330 O         1 <0>         0.0292
  48543 WAT       -30.4320  -71.6660   -4.0830 O         1 <0>         0.0134
  48544 WAT       -30.4320  -71.6660   -3.8330 O         1 <0>         0.0050
  48545 WAT       -30.4320  -71.6660   -3.5830 O         1 <0>         0.0018
  48546 WAT       -30.4320  -71.6660   -3.3330 O         1 <0>         0.0007
  48547 WAT       -30.4320  -71.6660   -3.0830 O         1 <0>         0.0003
  48548 WAT       -30.4320  -71.6660   -2.8330 O         1 <0>         0.0001
  48549 WAT       -30.4320  -71.6660   -2.5830 O         1 <0>         0.0001
  48550 WAT       -30.4320  -71.6660   -2.3330 O         1 <0>         0.0000
  48551 WAT       -30.4320  -71.6660   -2.0830 O         1 <0>         0.0000
  48552 WAT       -30.4320  -71.6660   -1.8330 O         1 <0>         0.0000
  48553 WAT       -30.4320  -71.6660   -1.5830 O         1 <0>         0.0000
  48554 WAT       -30.4320  -71.6660   -1.3330 O         1 <0>         0.0000
  48555 WAT       -30.4320  -71.6660   -1.0830 O         1 <0>         0.0000
  48556 WAT       -30.4320  -71.6660   -0.8330 O         1 <0>         0.0000
  48557 WAT       -30.4320  -71.6660   -0.5830 O         1 <0>         0.0000
  48558 WAT       -30.4320  -71.6660   -0.3330 O         1 <0>         0.0000
  48559 WAT       -30.4320  -71.6660   -0.0830 O         1 <0>         0.0000
  48560 WAT       -30.4320  -71.4160   -9.8330 O         1 <0>         0.0000
  48561 WAT       -30.4320  -71.4160   -9.5830 O         1 <0>         0.0000
  48562 WAT       -30.4320  -71.4160   -9.3330 O         1 <0>         0.0003
  48563 WAT       -30.4320  -71.4160   -9.0830 O         1 <0>         0.0051
  48564 WAT       -30.4320  -71.4160   -8.8330 O         1 <0>         0.0359
  48565 WAT       -30.4320  -71.4160   -8.5830 O         1 <0>         0.1320
  48566 WAT       -30.4320  -71.4160   -8.3330 O         1 <0>         0.3027
  48567 WAT       -30.4320  -71.4160   -8.0830 O         1 <0>         0.4490
  48568 WAT       -30.4320  -71.4160   -7.8330 O         1 <0>         0.4355
  48569 WAT       -30.4320  -71.4160   -7.5830 O         1 <0>         0.2798
  48570 WAT       -30.4320  -71.4160   -7.3330 O         1 <0>         0.1216
  48571 WAT       -30.4320  -71.4160   -7.0830 O         1 <0>         0.0355
  48572 WAT       -30.4320  -71.4160   -6.8330 O         1 <0>         0.0074
  48573 WAT       -30.4320  -71.4160   -6.5830 O         1 <0>         0.0019
  48574 WAT       -30.4320  -71.4160   -6.3330 O         1 <0>         0.0008
  48575 WAT       -30.4320  -71.4160   -6.0830 O         1 <0>         0.0009
  48576 WAT       -30.4320  -71.4160   -5.8330 O         1 <0>         0.0027
  48577 WAT       -30.4320  -71.4160   -5.5830 O         1 <0>         0.0079
  48578 WAT       -30.4320  -71.4160   -5.3330 O         1 <0>         0.0166
  48579 WAT       -30.4320  -71.4160   -5.0830 O         1 <0>         0.0245
  48580 WAT       -30.4320  -71.4160   -4.8330 O         1 <0>         0.0257
  48581 WAT       -30.4320  -71.4160   -4.5830 O         1 <0>         0.0193
  48582 WAT       -30.4320  -71.4160   -4.3330 O         1 <0>         0.0106
  48583 WAT       -30.4320  -71.4160   -4.0830 O         1 <0>         0.0045
  48584 WAT       -30.4320  -71.4160   -3.8330 O         1 <0>         0.0018
  48585 WAT       -30.4320  -71.4160   -3.5830 O         1 <0>         0.0008
  48586 WAT       -30.4320  -71.4160   -3.3330 O         1 <0>         0.0004
  48587 WAT       -30.4320  -71.4160   -3.0830 O         1 <0>         0.0003
  48588 WAT       -30.4320  -71.4160   -2.8330 O         1 <0>         0.0002
  48589 WAT       -30.4320  -71.4160   -2.5830 O         1 <0>         0.0001
  48590 WAT       -30.4320  -71.4160   -2.3330 O         1 <0>         0.0000
  48591 WAT       -30.4320  -71.4160   -2.0830 O         1 <0>         0.0000
  48592 WAT       -30.4320  -71.4160   -1.8330 O         1 <0>         0.0000
  48593 WAT       -30.4320  -71.4160   -1.5830 O         1 <0>         0.0000
  48594 WAT       -30.4320  -71.4160   -1.3330 O         1 <0>         0.0000
  48595 WAT       -30.4320  -71.4160   -1.0830 O         1 <0>         0.0000
  48596 WAT       -30.4320  -71.4160   -0.8330 O         1 <0>         0.0000
  48597 WAT       -30.4320  -71.4160   -0.5830 O         1 <0>         0.0000
  48598 WAT       -30.4320  -71.4160   -0.3330 O         1 <0>         0.0000
  48599 WAT       -30.4320  -71.4160   -0.0830 O         1 <0>         0.0000
  48600 WAT       -30.4320  -71.1660   -9.8330 O         1 <0>         0.0000
  48601 WAT       -30.4320  -71.1660   -9.5830 O         1 <0>         0.0000
  48602 WAT       -30.4320  -71.1660   -9.3330 O         1 <0>         0.0002
  48603 WAT       -30.4320  -71.1660   -9.0830 O         1 <0>         0.0035
  48604 WAT       -30.4320  -71.1660   -8.8330 O         1 <0>         0.0221
  48605 WAT       -30.4320  -71.1660   -8.5830 O         1 <0>         0.0769
  48606 WAT       -30.4320  -71.1660   -8.3330 O         1 <0>         0.1659
  48607 WAT       -30.4320  -71.1660   -8.0830 O         1 <0>         0.2319
  48608 WAT       -30.4320  -71.1660   -7.8330 O         1 <0>         0.2139
  48609 WAT       -30.4320  -71.1660   -7.5830 O         1 <0>         0.1323
  48610 WAT       -30.4320  -71.1660   -7.3330 O         1 <0>         0.0551
  48611 WAT       -30.4320  -71.1660   -7.0830 O         1 <0>         0.0150
  48612 WAT       -30.4320  -71.1660   -6.8330 O         1 <0>         0.0033
  48613 WAT       -30.4320  -71.1660   -6.5830 O         1 <0>         0.0009
  48614 WAT       -30.4320  -71.1660   -6.3330 O         1 <0>         0.0004
  48615 WAT       -30.4320  -71.1660   -6.0830 O         1 <0>         0.0006
  48616 WAT       -30.4320  -71.1660   -5.8330 O         1 <0>         0.0016
  48617 WAT       -30.4320  -71.1660   -5.5830 O         1 <0>         0.0042
  48618 WAT       -30.4320  -71.1660   -5.3330 O         1 <0>         0.0082
  48619 WAT       -30.4320  -71.1660   -5.0830 O         1 <0>         0.0111
  48620 WAT       -30.4320  -71.1660   -4.8330 O         1 <0>         0.0106
  48621 WAT       -30.4320  -71.1660   -4.5830 O         1 <0>         0.0071
  48622 WAT       -30.4320  -71.1660   -4.3330 O         1 <0>         0.0035
  48623 WAT       -30.4320  -71.1660   -4.0830 O         1 <0>         0.0014
  48624 WAT       -30.4320  -71.1660   -3.8330 O         1 <0>         0.0006
  48625 WAT       -30.4320  -71.1660   -3.5830 O         1 <0>         0.0004
  48626 WAT       -30.4320  -71.1660   -3.3330 O         1 <0>         0.0003
  48627 WAT       -30.4320  -71.1660   -3.0830 O         1 <0>         0.0002
  48628 WAT       -30.4320  -71.1660   -2.8330 O         1 <0>         0.0002
  48629 WAT       -30.4320  -71.1660   -2.5830 O         1 <0>         0.0001
  48630 WAT       -30.4320  -71.1660   -2.3330 O         1 <0>         0.0000
  48631 WAT       -30.4320  -71.1660   -2.0830 O         1 <0>         0.0000
  48632 WAT       -30.4320  -71.1660   -1.8330 O         1 <0>         0.0000
  48633 WAT       -30.4320  -71.1660   -1.5830 O         1 <0>         0.0000
  48634 WAT       -30.4320  -71.1660   -1.3330 O         1 <0>         0.0000
  48635 WAT       -30.4320  -71.1660   -1.0830 O         1 <0>         0.0000
  48636 WAT       -30.4320  -71.1660   -0.8330 O         1 <0>         0.0000
  48637 WAT       -30.4320  -71.1660   -0.5830 O         1 <0>         0.0000
  48638 WAT       -30.4320  -71.1660   -0.3330 O         1 <0>         0.0000
  48639 WAT       -30.4320  -71.1660   -0.0830 O         1 <0>         0.0000
  48640 WAT       -30.4320  -70.9160   -9.8330 O         1 <0>         0.0000
  48641 WAT       -30.4320  -70.9160   -9.5830 O         1 <0>         0.0000
  48642 WAT       -30.4320  -70.9160   -9.3330 O         1 <0>         0.0001
  48643 WAT       -30.4320  -70.9160   -9.0830 O         1 <0>         0.0016
  48644 WAT       -30.4320  -70.9160   -8.8330 O         1 <0>         0.0096
  48645 WAT       -30.4320  -70.9160   -8.5830 O         1 <0>         0.0314
  48646 WAT       -30.4320  -70.9160   -8.3330 O         1 <0>         0.0638
  48647 WAT       -30.4320  -70.9160   -8.0830 O         1 <0>         0.0841
  48648 WAT       -30.4320  -70.9160   -7.8330 O         1 <0>         0.0733
  48649 WAT       -30.4320  -70.9160   -7.5830 O         1 <0>         0.0428
  48650 WAT       -30.4320  -70.9160   -7.3330 O         1 <0>         0.0163
  48651 WAT       -30.4320  -70.9160   -7.0830 O         1 <0>         0.0043
  48652 WAT       -30.4320  -70.9160   -6.8330 O         1 <0>         0.0010
  48653 WAT       -30.4320  -70.9160   -6.5830 O         1 <0>         0.0003
  48654 WAT       -30.4320  -70.9160   -6.3330 O         1 <0>         0.0002
  48655 WAT       -30.4320  -70.9160   -6.0830 O         1 <0>         0.0004
  48656 WAT       -30.4320  -70.9160   -5.8330 O         1 <0>         0.0012
  48657 WAT       -30.4320  -70.9160   -5.5830 O         1 <0>         0.0026
  48658 WAT       -30.4320  -70.9160   -5.3330 O         1 <0>         0.0044
  48659 WAT       -30.4320  -70.9160   -5.0830 O         1 <0>         0.0053
  48660 WAT       -30.4320  -70.9160   -4.8330 O         1 <0>         0.0046
  48661 WAT       -30.4320  -70.9160   -4.5830 O         1 <0>         0.0028
  48662 WAT       -30.4320  -70.9160   -4.3330 O         1 <0>         0.0013
  48663 WAT       -30.4320  -70.9160   -4.0830 O         1 <0>         0.0005
  48664 WAT       -30.4320  -70.9160   -3.8330 O         1 <0>         0.0003
  48665 WAT       -30.4320  -70.9160   -3.5830 O         1 <0>         0.0002
  48666 WAT       -30.4320  -70.9160   -3.3330 O         1 <0>         0.0002
  48667 WAT       -30.4320  -70.9160   -3.0830 O         1 <0>         0.0001
  48668 WAT       -30.4320  -70.9160   -2.8330 O         1 <0>         0.0001
  48669 WAT       -30.4320  -70.9160   -2.5830 O         1 <0>         0.0001
  48670 WAT       -30.4320  -70.9160   -2.3330 O         1 <0>         0.0000
  48671 WAT       -30.4320  -70.9160   -2.0830 O         1 <0>         0.0000
  48672 WAT       -30.4320  -70.9160   -1.8330 O         1 <0>         0.0000
  48673 WAT       -30.4320  -70.9160   -1.5830 O         1 <0>         0.0000
  48674 WAT       -30.4320  -70.9160   -1.3330 O         1 <0>         0.0000
  48675 WAT       -30.4320  -70.9160   -1.0830 O         1 <0>         0.0000
  48676 WAT       -30.4320  -70.9160   -0.8330 O         1 <0>         0.0000
  48677 WAT       -30.4320  -70.9160   -0.5830 O         1 <0>         0.0000
  48678 WAT       -30.4320  -70.9160   -0.3330 O         1 <0>         0.0000
  48679 WAT       -30.4320  -70.9160   -0.0830 O         1 <0>         0.0000
  48680 WAT       -30.4320  -70.6660   -9.8330 O         1 <0>         0.0000
  48681 WAT       -30.4320  -70.6660   -9.5830 O         1 <0>         0.0000
  48682 WAT       -30.4320  -70.6660   -9.3330 O         1 <0>         0.0000
  48683 WAT       -30.4320  -70.6660   -9.0830 O         1 <0>         0.0005
  48684 WAT       -30.4320  -70.6660   -8.8330 O         1 <0>         0.0029
  48685 WAT       -30.4320  -70.6660   -8.5830 O         1 <0>         0.0090
  48686 WAT       -30.4320  -70.6660   -8.3330 O         1 <0>         0.0173
  48687 WAT       -30.4320  -70.6660   -8.0830 O         1 <0>         0.0212
  48688 WAT       -30.4320  -70.6660   -7.8330 O         1 <0>         0.0170
  48689 WAT       -30.4320  -70.6660   -7.5830 O         1 <0>         0.0090
  48690 WAT       -30.4320  -70.6660   -7.3330 O         1 <0>         0.0032
  48691 WAT       -30.4320  -70.6660   -7.0830 O         1 <0>         0.0009
  48692 WAT       -30.4320  -70.6660   -6.8330 O         1 <0>         0.0002
  48693 WAT       -30.4320  -70.6660   -6.5830 O         1 <0>         0.0001
  48694 WAT       -30.4320  -70.6660   -6.3330 O         1 <0>         0.0001
  48695 WAT       -30.4320  -70.6660   -6.0830 O         1 <0>         0.0004
  48696 WAT       -30.4320  -70.6660   -5.8330 O         1 <0>         0.0010
  48697 WAT       -30.4320  -70.6660   -5.5830 O         1 <0>         0.0019
  48698 WAT       -30.4320  -70.6660   -5.3330 O         1 <0>         0.0026
  48699 WAT       -30.4320  -70.6660   -5.0830 O         1 <0>         0.0027
  48700 WAT       -30.4320  -70.6660   -4.8330 O         1 <0>         0.0022
  48701 WAT       -30.4320  -70.6660   -4.5830 O         1 <0>         0.0014
  48702 WAT       -30.4320  -70.6660   -4.3330 O         1 <0>         0.0007
  48703 WAT       -30.4320  -70.6660   -4.0830 O         1 <0>         0.0003
  48704 WAT       -30.4320  -70.6660   -3.8330 O         1 <0>         0.0001
  48705 WAT       -30.4320  -70.6660   -3.5830 O         1 <0>         0.0001
  48706 WAT       -30.4320  -70.6660   -3.3330 O         1 <0>         0.0001
  48707 WAT       -30.4320  -70.6660   -3.0830 O         1 <0>         0.0000
  48708 WAT       -30.4320  -70.6660   -2.8330 O         1 <0>         0.0000
  48709 WAT       -30.4320  -70.6660   -2.5830 O         1 <0>         0.0000
  48710 WAT       -30.4320  -70.6660   -2.3330 O         1 <0>         0.0000
  48711 WAT       -30.4320  -70.6660   -2.0830 O         1 <0>         0.0000
  48712 WAT       -30.4320  -70.6660   -1.8330 O         1 <0>         0.0000
  48713 WAT       -30.4320  -70.6660   -1.5830 O         1 <0>         0.0000
  48714 WAT       -30.4320  -70.6660   -1.3330 O         1 <0>         0.0000
  48715 WAT       -30.4320  -70.6660   -1.0830 O         1 <0>         0.0000
  48716 WAT       -30.4320  -70.6660   -0.8330 O         1 <0>         0.0000
  48717 WAT       -30.4320  -70.6660   -0.5830 O         1 <0>         0.0000
  48718 WAT       -30.4320  -70.6660   -0.3330 O         1 <0>         0.0000
  48719 WAT       -30.4320  -70.6660   -0.0830 O         1 <0>         0.0000
  48720 WAT       -30.4320  -70.4160   -9.8330 O         1 <0>         0.0000
  48721 WAT       -30.4320  -70.4160   -9.5830 O         1 <0>         0.0000
  48722 WAT       -30.4320  -70.4160   -9.3330 O         1 <0>         0.0000
  48723 WAT       -30.4320  -70.4160   -9.0830 O         1 <0>         0.0001
  48724 WAT       -30.4320  -70.4160   -8.8330 O         1 <0>         0.0006
  48725 WAT       -30.4320  -70.4160   -8.5830 O         1 <0>         0.0019
  48726 WAT       -30.4320  -70.4160   -8.3330 O         1 <0>         0.0033
  48727 WAT       -30.4320  -70.4160   -8.0830 O         1 <0>         0.0037
  48728 WAT       -30.4320  -70.4160   -7.8330 O         1 <0>         0.0027
  48729 WAT       -30.4320  -70.4160   -7.5830 O         1 <0>         0.0013
  48730 WAT       -30.4320  -70.4160   -7.3330 O         1 <0>         0.0006
  48731 WAT       -30.4320  -70.4160   -7.0830 O         1 <0>         0.0003
  48732 WAT       -30.4320  -70.4160   -6.8330 O         1 <0>         0.0002
  48733 WAT       -30.4320  -70.4160   -6.5830 O         1 <0>         0.0001
  48734 WAT       -30.4320  -70.4160   -6.3330 O         1 <0>         0.0002
  48735 WAT       -30.4320  -70.4160   -6.0830 O         1 <0>         0.0005
  48736 WAT       -30.4320  -70.4160   -5.8330 O         1 <0>         0.0009
  48737 WAT       -30.4320  -70.4160   -5.5830 O         1 <0>         0.0013
  48738 WAT       -30.4320  -70.4160   -5.3330 O         1 <0>         0.0015
  48739 WAT       -30.4320  -70.4160   -5.0830 O         1 <0>         0.0015
  48740 WAT       -30.4320  -70.4160   -4.8330 O         1 <0>         0.0014
  48741 WAT       -30.4320  -70.4160   -4.5830 O         1 <0>         0.0010
  48742 WAT       -30.4320  -70.4160   -4.3330 O         1 <0>         0.0006
  48743 WAT       -30.4320  -70.4160   -4.0830 O         1 <0>         0.0003
  48744 WAT       -30.4320  -70.4160   -3.8330 O         1 <0>         0.0001
  48745 WAT       -30.4320  -70.4160   -3.5830 O         1 <0>         0.0000
  48746 WAT       -30.4320  -70.4160   -3.3330 O         1 <0>         0.0000
  48747 WAT       -30.4320  -70.4160   -3.0830 O         1 <0>         0.0000
  48748 WAT       -30.4320  -70.4160   -2.8330 O         1 <0>         0.0000
  48749 WAT       -30.4320  -70.4160   -2.5830 O         1 <0>         0.0000
  48750 WAT       -30.4320  -70.4160   -2.3330 O         1 <0>         0.0000
  48751 WAT       -30.4320  -70.4160   -2.0830 O         1 <0>         0.0000
  48752 WAT       -30.4320  -70.4160   -1.8330 O         1 <0>         0.0000
  48753 WAT       -30.4320  -70.4160   -1.5830 O         1 <0>         0.0000
  48754 WAT       -30.4320  -70.4160   -1.3330 O         1 <0>         0.0000
  48755 WAT       -30.4320  -70.4160   -1.0830 O         1 <0>         0.0000
  48756 WAT       -30.4320  -70.4160   -0.8330 O         1 <0>         0.0000
  48757 WAT       -30.4320  -70.4160   -0.5830 O         1 <0>         0.0000
  48758 WAT       -30.4320  -70.4160   -0.3330 O         1 <0>         0.0000
  48759 WAT       -30.4320  -70.4160   -0.0830 O         1 <0>         0.0000
  48760 WAT       -30.4320  -70.1660   -9.8330 O         1 <0>         0.0000
  48761 WAT       -30.4320  -70.1660   -9.5830 O         1 <0>         0.0000
  48762 WAT       -30.4320  -70.1660   -9.3330 O         1 <0>         0.0000
  48763 WAT       -30.4320  -70.1660   -9.0830 O         1 <0>         0.0000
  48764 WAT       -30.4320  -70.1660   -8.8330 O         1 <0>         0.0001
  48765 WAT       -30.4320  -70.1660   -8.5830 O         1 <0>         0.0003
  48766 WAT       -30.4320  -70.1660   -8.3330 O         1 <0>         0.0005
  48767 WAT       -30.4320  -70.1660   -8.0830 O         1 <0>         0.0007
  48768 WAT       -30.4320  -70.1660   -7.8330 O         1 <0>         0.0010
  48769 WAT       -30.4320  -70.1660   -7.5830 O         1 <0>         0.0017
  48770 WAT       -30.4320  -70.1660   -7.3330 O         1 <0>         0.0024
  48771 WAT       -30.4320  -70.1660   -7.0830 O         1 <0>         0.0024
  48772 WAT       -30.4320  -70.1660   -6.8330 O         1 <0>         0.0016
  48773 WAT       -30.4320  -70.1660   -6.5830 O         1 <0>         0.0008
  48774 WAT       -30.4320  -70.1660   -6.3330 O         1 <0>         0.0005
  48775 WAT       -30.4320  -70.1660   -6.0830 O         1 <0>         0.0005
  48776 WAT       -30.4320  -70.1660   -5.8330 O         1 <0>         0.0007
  48777 WAT       -30.4320  -70.1660   -5.5830 O         1 <0>         0.0009
  48778 WAT       -30.4320  -70.1660   -5.3330 O         1 <0>         0.0009
  48779 WAT       -30.4320  -70.1660   -5.0830 O         1 <0>         0.0010
  48780 WAT       -30.4320  -70.1660   -4.8330 O         1 <0>         0.0010
  48781 WAT       -30.4320  -70.1660   -4.5830 O         1 <0>         0.0009
  48782 WAT       -30.4320  -70.1660   -4.3330 O         1 <0>         0.0006
  48783 WAT       -30.4320  -70.1660   -4.0830 O         1 <0>         0.0002
  48784 WAT       -30.4320  -70.1660   -3.8330 O         1 <0>         0.0001
  48785 WAT       -30.4320  -70.1660   -3.5830 O         1 <0>         0.0000
  48786 WAT       -30.4320  -70.1660   -3.3330 O         1 <0>         0.0000
  48787 WAT       -30.4320  -70.1660   -3.0830 O         1 <0>         0.0000
  48788 WAT       -30.4320  -70.1660   -2.8330 O         1 <0>         0.0000
  48789 WAT       -30.4320  -70.1660   -2.5830 O         1 <0>         0.0000
  48790 WAT       -30.4320  -70.1660   -2.3330 O         1 <0>         0.0000
  48791 WAT       -30.4320  -70.1660   -2.0830 O         1 <0>         0.0000
  48792 WAT       -30.4320  -70.1660   -1.8330 O         1 <0>         0.0000
  48793 WAT       -30.4320  -70.1660   -1.5830 O         1 <0>         0.0000
  48794 WAT       -30.4320  -70.1660   -1.3330 O         1 <0>         0.0000
  48795 WAT       -30.4320  -70.1660   -1.0830 O         1 <0>         0.0000
  48796 WAT       -30.4320  -70.1660   -0.8330 O         1 <0>         0.0000
  48797 WAT       -30.4320  -70.1660   -0.5830 O         1 <0>         0.0000
  48798 WAT       -30.4320  -70.1660   -0.3330 O         1 <0>         0.0000
  48799 WAT       -30.4320  -70.1660   -0.0830 O         1 <0>         0.0000
  48800 WAT       -30.4320  -69.9160   -9.8330 O         1 <0>         0.0000
  48801 WAT       -30.4320  -69.9160   -9.5830 O         1 <0>         0.0000
  48802 WAT       -30.4320  -69.9160   -9.3330 O         1 <0>         0.0000
  48803 WAT       -30.4320  -69.9160   -9.0830 O         1 <0>         0.0000
  48804 WAT       -30.4320  -69.9160   -8.8330 O         1 <0>         0.0001
  48805 WAT       -30.4320  -69.9160   -8.5830 O         1 <0>         0.0002
  48806 WAT       -30.4320  -69.9160   -8.3330 O         1 <0>         0.0005
  48807 WAT       -30.4320  -69.9160   -8.0830 O         1 <0>         0.0017
  48808 WAT       -30.4320  -69.9160   -7.8330 O         1 <0>         0.0051
  48809 WAT       -30.4320  -69.9160   -7.5830 O         1 <0>         0.0108
  48810 WAT       -30.4320  -69.9160   -7.3330 O         1 <0>         0.0157
  48811 WAT       -30.4320  -69.9160   -7.0830 O         1 <0>         0.0156
  48812 WAT       -30.4320  -69.9160   -6.8330 O         1 <0>         0.0108
  48813 WAT       -30.4320  -69.9160   -6.5830 O         1 <0>         0.0052
  48814 WAT       -30.4320  -69.9160   -6.3330 O         1 <0>         0.0019
  48815 WAT       -30.4320  -69.9160   -6.0830 O         1 <0>         0.0008
  48816 WAT       -30.4320  -69.9160   -5.8330 O         1 <0>         0.0006
  48817 WAT       -30.4320  -69.9160   -5.5830 O         1 <0>         0.0006
  48818 WAT       -30.4320  -69.9160   -5.3330 O         1 <0>         0.0005
  48819 WAT       -30.4320  -69.9160   -5.0830 O         1 <0>         0.0006
  48820 WAT       -30.4320  -69.9160   -4.8330 O         1 <0>         0.0008
  48821 WAT       -30.4320  -69.9160   -4.5830 O         1 <0>         0.0007
  48822 WAT       -30.4320  -69.9160   -4.3330 O         1 <0>         0.0005
  48823 WAT       -30.4320  -69.9160   -4.0830 O         1 <0>         0.0002
  48824 WAT       -30.4320  -69.9160   -3.8330 O         1 <0>         0.0000
  48825 WAT       -30.4320  -69.9160   -3.5830 O         1 <0>         0.0000
  48826 WAT       -30.4320  -69.9160   -3.3330 O         1 <0>         0.0000
  48827 WAT       -30.4320  -69.9160   -3.0830 O         1 <0>         0.0000
  48828 WAT       -30.4320  -69.9160   -2.8330 O         1 <0>         0.0000
  48829 WAT       -30.4320  -69.9160   -2.5830 O         1 <0>         0.0000
  48830 WAT       -30.4320  -69.9160   -2.3330 O         1 <0>         0.0000
  48831 WAT       -30.4320  -69.9160   -2.0830 O         1 <0>         0.0000
  48832 WAT       -30.4320  -69.9160   -1.8330 O         1 <0>         0.0000
  48833 WAT       -30.4320  -69.9160   -1.5830 O         1 <0>         0.0000
  48834 WAT       -30.4320  -69.9160   -1.3330 O         1 <0>         0.0000
  48835 WAT       -30.4320  -69.9160   -1.0830 O         1 <0>         0.0000
  48836 WAT       -30.4320  -69.9160   -0.8330 O         1 <0>         0.0000
  48837 WAT       -30.4320  -69.9160   -0.5830 O         1 <0>         0.0000
  48838 WAT       -30.4320  -69.9160   -0.3330 O         1 <0>         0.0000
  48839 WAT       -30.4320  -69.9160   -0.0830 O         1 <0>         0.0000
  48840 WAT       -30.4320  -69.6660   -9.8330 O         1 <0>         0.0000
  48841 WAT       -30.4320  -69.6660   -9.5830 O         1 <0>         0.0000
  48842 WAT       -30.4320  -69.6660   -9.3330 O         1 <0>         0.0000
  48843 WAT       -30.4320  -69.6660   -9.0830 O         1 <0>         0.0001
  48844 WAT       -30.4320  -69.6660   -8.8330 O         1 <0>         0.0002
  48845 WAT       -30.4320  -69.6660   -8.5830 O         1 <0>         0.0005
  48846 WAT       -30.4320  -69.6660   -8.3330 O         1 <0>         0.0018
  48847 WAT       -30.4320  -69.6660   -8.0830 O         1 <0>         0.0068
  48848 WAT       -30.4320  -69.6660   -7.8330 O         1 <0>         0.0194
  48849 WAT       -30.4320  -69.6660   -7.5830 O         1 <0>         0.0394
  48850 WAT       -30.4320  -69.6660   -7.3330 O         1 <0>         0.0560
  48851 WAT       -30.4320  -69.6660   -7.0830 O         1 <0>         0.0558
  48852 WAT       -30.4320  -69.6660   -6.8330 O         1 <0>         0.0391
  48853 WAT       -30.4320  -69.6660   -6.5830 O         1 <0>         0.0193
  48854 WAT       -30.4320  -69.6660   -6.3330 O         1 <0>         0.0067
  48855 WAT       -30.4320  -69.6660   -6.0830 O         1 <0>         0.0018
  48856 WAT       -30.4320  -69.6660   -5.8330 O         1 <0>         0.0006
  48857 WAT       -30.4320  -69.6660   -5.5830 O         1 <0>         0.0004
  48858 WAT       -30.4320  -69.6660   -5.3330 O         1 <0>         0.0003
  48859 WAT       -30.4320  -69.6660   -5.0830 O         1 <0>         0.0003
  48860 WAT       -30.4320  -69.6660   -4.8330 O         1 <0>         0.0004
  48861 WAT       -30.4320  -69.6660   -4.5830 O         1 <0>         0.0004
  48862 WAT       -30.4320  -69.6660   -4.3330 O         1 <0>         0.0002
  48863 WAT       -30.4320  -69.6660   -4.0830 O         1 <0>         0.0001
  48864 WAT       -30.4320  -69.6660   -3.8330 O         1 <0>         0.0000
  48865 WAT       -30.4320  -69.6660   -3.5830 O         1 <0>         0.0000
  48866 WAT       -30.4320  -69.6660   -3.3330 O         1 <0>         0.0000
  48867 WAT       -30.4320  -69.6660   -3.0830 O         1 <0>         0.0000
  48868 WAT       -30.4320  -69.6660   -2.8330 O         1 <0>         0.0000
  48869 WAT       -30.4320  -69.6660   -2.5830 O         1 <0>         0.0000
  48870 WAT       -30.4320  -69.6660   -2.3330 O         1 <0>         0.0000
  48871 WAT       -30.4320  -69.6660   -2.0830 O         1 <0>         0.0000
  48872 WAT       -30.4320  -69.6660   -1.8330 O         1 <0>         0.0000
  48873 WAT       -30.4320  -69.6660   -1.5830 O         1 <0>         0.0000
  48874 WAT       -30.4320  -69.6660   -1.3330 O         1 <0>         0.0000
  48875 WAT       -30.4320  -69.6660   -1.0830 O         1 <0>         0.0000
  48876 WAT       -30.4320  -69.6660   -0.8330 O         1 <0>         0.0000
  48877 WAT       -30.4320  -69.6660   -0.5830 O         1 <0>         0.0000
  48878 WAT       -30.4320  -69.6660   -0.3330 O         1 <0>         0.0000
  48879 WAT       -30.4320  -69.6660   -0.0830 O         1 <0>         0.0000
  48880 WAT       -30.4320  -69.4160   -9.8330 O         1 <0>         0.0000
  48881 WAT       -30.4320  -69.4160   -9.5830 O         1 <0>         0.0000
  48882 WAT       -30.4320  -69.4160   -9.3330 O         1 <0>         0.0000
  48883 WAT       -30.4320  -69.4160   -9.0830 O         1 <0>         0.0001
  48884 WAT       -30.4320  -69.4160   -8.8330 O         1 <0>         0.0004
  48885 WAT       -30.4320  -69.4160   -8.5830 O         1 <0>         0.0011
  48886 WAT       -30.4320  -69.4160   -8.3330 O         1 <0>         0.0042
  48887 WAT       -30.4320  -69.4160   -8.0830 O         1 <0>         0.0153
  48888 WAT       -30.4320  -69.4160   -7.8330 O         1 <0>         0.0429
  48889 WAT       -30.4320  -69.4160   -7.5830 O         1 <0>         0.0865
  48890 WAT       -30.4320  -69.4160   -7.3330 O         1 <0>         0.1234
  48891 WAT       -30.4320  -69.4160   -7.0830 O         1 <0>         0.1236
  48892 WAT       -30.4320  -69.4160   -6.8330 O         1 <0>         0.0869
  48893 WAT       -30.4320  -69.4160   -6.5830 O         1 <0>         0.0432
  48894 WAT       -30.4320  -69.4160   -6.3330 O         1 <0>         0.0150
  48895 WAT       -30.4320  -69.4160   -6.0830 O         1 <0>         0.0037
  48896 WAT       -30.4320  -69.4160   -5.8330 O         1 <0>         0.0008
  48897 WAT       -30.4320  -69.4160   -5.5830 O         1 <0>         0.0003
  48898 WAT       -30.4320  -69.4160   -5.3330 O         1 <0>         0.0002
  48899 WAT       -30.4320  -69.4160   -5.0830 O         1 <0>         0.0001
  48900 WAT       -30.4320  -69.4160   -4.8330 O         1 <0>         0.0001
  48901 WAT       -30.4320  -69.4160   -4.5830 O         1 <0>         0.0001
  48902 WAT       -30.4320  -69.4160   -4.3330 O         1 <0>         0.0001
  48903 WAT       -30.4320  -69.4160   -4.0830 O         1 <0>         0.0000
  48904 WAT       -30.4320  -69.4160   -3.8330 O         1 <0>         0.0000
  48905 WAT       -30.4320  -69.4160   -3.5830 O         1 <0>         0.0000
  48906 WAT       -30.4320  -69.4160   -3.3330 O         1 <0>         0.0000
  48907 WAT       -30.4320  -69.4160   -3.0830 O         1 <0>         0.0000
  48908 WAT       -30.4320  -69.4160   -2.8330 O         1 <0>         0.0000
  48909 WAT       -30.4320  -69.4160   -2.5830 O         1 <0>         0.0000
  48910 WAT       -30.4320  -69.4160   -2.3330 O         1 <0>         0.0000
  48911 WAT       -30.4320  -69.4160   -2.0830 O         1 <0>         0.0000
  48912 WAT       -30.4320  -69.4160   -1.8330 O         1 <0>         0.0000
  48913 WAT       -30.4320  -69.4160   -1.5830 O         1 <0>         0.0000
  48914 WAT       -30.4320  -69.4160   -1.3330 O         1 <0>         0.0000
  48915 WAT       -30.4320  -69.4160   -1.0830 O         1 <0>         0.0000
  48916 WAT       -30.4320  -69.4160   -0.8330 O         1 <0>         0.0000
  48917 WAT       -30.4320  -69.4160   -0.5830 O         1 <0>         0.0000
  48918 WAT       -30.4320  -69.4160   -0.3330 O         1 <0>         0.0000
  48919 WAT       -30.4320  -69.4160   -0.0830 O         1 <0>         0.0000
  48920 WAT       -30.4320  -69.1660   -9.8330 O         1 <0>         0.0000
  48921 WAT       -30.4320  -69.1660   -9.5830 O         1 <0>         0.0000
  48922 WAT       -30.4320  -69.1660   -9.3330 O         1 <0>         0.0001
  48923 WAT       -30.4320  -69.1660   -9.0830 O         1 <0>         0.0002
  48924 WAT       -30.4320  -69.1660   -8.8330 O         1 <0>         0.0005
  48925 WAT       -30.4320  -69.1660   -8.5830 O         1 <0>         0.0015
  48926 WAT       -30.4320  -69.1660   -8.3330 O         1 <0>         0.0056
  48927 WAT       -30.4320  -69.1660   -8.0830 O         1 <0>         0.0207
  48928 WAT       -30.4320  -69.1660   -7.8330 O         1 <0>         0.0586
  48929 WAT       -30.4320  -69.1660   -7.5830 O         1 <0>         0.1191
  48930 WAT       -30.4320  -69.1660   -7.3330 O         1 <0>         0.1711
  48931 WAT       -30.4320  -69.1660   -7.0830 O         1 <0>         0.1726
  48932 WAT       -30.4320  -69.1660   -6.8330 O         1 <0>         0.1222
  48933 WAT       -30.4320  -69.1660   -6.5830 O         1 <0>         0.0609
  48934 WAT       -30.4320  -69.1660   -6.3330 O         1 <0>         0.0213
  48935 WAT       -30.4320  -69.1660   -6.0830 O         1 <0>         0.0051
  48936 WAT       -30.4320  -69.1660   -5.8330 O         1 <0>         0.0009
  48937 WAT       -30.4320  -69.1660   -5.5830 O         1 <0>         0.0002
  48938 WAT       -30.4320  -69.1660   -5.3330 O         1 <0>         0.0001
  48939 WAT       -30.4320  -69.1660   -5.0830 O         1 <0>         0.0000
  48940 WAT       -30.4320  -69.1660   -4.8330 O         1 <0>         0.0000
  48941 WAT       -30.4320  -69.1660   -4.5830 O         1 <0>         0.0000
  48942 WAT       -30.4320  -69.1660   -4.3330 O         1 <0>         0.0000
  48943 WAT       -30.4320  -69.1660   -4.0830 O         1 <0>         0.0000
  48944 WAT       -30.4320  -69.1660   -3.8330 O         1 <0>         0.0000
  48945 WAT       -30.4320  -69.1660   -3.5830 O         1 <0>         0.0000
  48946 WAT       -30.4320  -69.1660   -3.3330 O         1 <0>         0.0000
  48947 WAT       -30.4320  -69.1660   -3.0830 O         1 <0>         0.0000
  48948 WAT       -30.4320  -69.1660   -2.8330 O         1 <0>         0.0000
  48949 WAT       -30.4320  -69.1660   -2.5830 O         1 <0>         0.0000
  48950 WAT       -30.4320  -69.1660   -2.3330 O         1 <0>         0.0000
  48951 WAT       -30.4320  -69.1660   -2.0830 O         1 <0>         0.0000
  48952 WAT       -30.4320  -69.1660   -1.8330 O         1 <0>         0.0000
  48953 WAT       -30.4320  -69.1660   -1.5830 O         1 <0>         0.0000
  48954 WAT       -30.4320  -69.1660   -1.3330 O         1 <0>         0.0000
  48955 WAT       -30.4320  -69.1660   -1.0830 O         1 <0>         0.0000
  48956 WAT       -30.4320  -69.1660   -0.8330 O         1 <0>         0.0000
  48957 WAT       -30.4320  -69.1660   -0.5830 O         1 <0>         0.0000
  48958 WAT       -30.4320  -69.1660   -0.3330 O         1 <0>         0.0000
  48959 WAT       -30.4320  -69.1660   -0.0830 O         1 <0>         0.0000
  48960 WAT       -30.4320  -68.9160   -9.8330 O         1 <0>         0.0000
  48961 WAT       -30.4320  -68.9160   -9.5830 O         1 <0>         0.0000
  48962 WAT       -30.4320  -68.9160   -9.3330 O         1 <0>         0.0001
  48963 WAT       -30.4320  -68.9160   -9.0830 O         1 <0>         0.0002
  48964 WAT       -30.4320  -68.9160   -8.8330 O         1 <0>         0.0004
  48965 WAT       -30.4320  -68.9160   -8.5830 O         1 <0>         0.0011
  48966 WAT       -30.4320  -68.9160   -8.3330 O         1 <0>         0.0044
  48967 WAT       -30.4320  -68.9160   -8.0830 O         1 <0>         0.0172
  48968 WAT       -30.4320  -68.9160   -7.8330 O         1 <0>         0.0495
  48969 WAT       -30.4320  -68.9160   -7.5830 O         1 <0>         0.1017
  48970 WAT       -30.4320  -68.9160   -7.3330 O         1 <0>         0.1474
  48971 WAT       -30.4320  -68.9160   -7.0830 O         1 <0>         0.1499
  48972 WAT       -30.4320  -68.9160   -6.8330 O         1 <0>         0.1069
  48973 WAT       -30.4320  -68.9160   -6.5830 O         1 <0>         0.0535
  48974 WAT       -30.4320  -68.9160   -6.3330 O         1 <0>         0.0186
  48975 WAT       -30.4320  -68.9160   -6.0830 O         1 <0>         0.0044
  48976 WAT       -30.4320  -68.9160   -5.8330 O         1 <0>         0.0007
  48977 WAT       -30.4320  -68.9160   -5.5830 O         1 <0>         0.0001
  48978 WAT       -30.4320  -68.9160   -5.3330 O         1 <0>         0.0000
  48979 WAT       -30.4320  -68.9160   -5.0830 O         1 <0>         0.0000
  48980 WAT       -30.4320  -68.9160   -4.8330 O         1 <0>         0.0000
  48981 WAT       -30.4320  -68.9160   -4.5830 O         1 <0>         0.0000
  48982 WAT       -30.4320  -68.9160   -4.3330 O         1 <0>         0.0000
  48983 WAT       -30.4320  -68.9160   -4.0830 O         1 <0>         0.0000
  48984 WAT       -30.4320  -68.9160   -3.8330 O         1 <0>         0.0000
  48985 WAT       -30.4320  -68.9160   -3.5830 O         1 <0>         0.0000
  48986 WAT       -30.4320  -68.9160   -3.3330 O         1 <0>         0.0000
  48987 WAT       -30.4320  -68.9160   -3.0830 O         1 <0>         0.0000
  48988 WAT       -30.4320  -68.9160   -2.8330 O         1 <0>         0.0000
  48989 WAT       -30.4320  -68.9160   -2.5830 O         1 <0>         0.0000
  48990 WAT       -30.4320  -68.9160   -2.3330 O         1 <0>         0.0000
  48991 WAT       -30.4320  -68.9160   -2.0830 O         1 <0>         0.0000
  48992 WAT       -30.4320  -68.9160   -1.8330 O         1 <0>         0.0000
  48993 WAT       -30.4320  -68.9160   -1.5830 O         1 <0>         0.0000
  48994 WAT       -30.4320  -68.9160   -1.3330 O         1 <0>         0.0000
  48995 WAT       -30.4320  -68.9160   -1.0830 O         1 <0>         0.0000
  48996 WAT       -30.4320  -68.9160   -0.8330 O         1 <0>         0.0000
  48997 WAT       -30.4320  -68.9160   -0.5830 O         1 <0>         0.0000
  48998 WAT       -30.4320  -68.9160   -0.3330 O         1 <0>         0.0000
  48999 WAT       -30.4320  -68.9160   -0.0830 O         1 <0>         0.0000
  49000 WAT       -30.1820  -77.4160   -9.8330 O         1 <0>         0.0000
  49001 WAT       -30.1820  -77.4160   -9.5830 O         1 <0>         0.0000
  49002 WAT       -30.1820  -77.4160   -9.3330 O         1 <0>         0.0000
  49003 WAT       -30.1820  -77.4160   -9.0830 O         1 <0>         0.0000
  49004 WAT       -30.1820  -77.4160   -8.8330 O         1 <0>         0.0000
  49005 WAT       -30.1820  -77.4160   -8.5830 O         1 <0>         0.0000
  49006 WAT       -30.1820  -77.4160   -8.3330 O         1 <0>         0.0000
  49007 WAT       -30.1820  -77.4160   -8.0830 O         1 <0>         0.0000
  49008 WAT       -30.1820  -77.4160   -7.8330 O         1 <0>         0.0000
  49009 WAT       -30.1820  -77.4160   -7.5830 O         1 <0>         0.0000
  49010 WAT       -30.1820  -77.4160   -7.3330 O         1 <0>         0.0000
  49011 WAT       -30.1820  -77.4160   -7.0830 O         1 <0>         0.0000
  49012 WAT       -30.1820  -77.4160   -6.8330 O         1 <0>         0.0000
  49013 WAT       -30.1820  -77.4160   -6.5830 O         1 <0>         0.0000
  49014 WAT       -30.1820  -77.4160   -6.3330 O         1 <0>         0.0000
  49015 WAT       -30.1820  -77.4160   -6.0830 O         1 <0>         0.0000
  49016 WAT       -30.1820  -77.4160   -5.8330 O         1 <0>         0.0000
  49017 WAT       -30.1820  -77.4160   -5.5830 O         1 <0>         0.0000
  49018 WAT       -30.1820  -77.4160   -5.3330 O         1 <0>         0.0000
  49019 WAT       -30.1820  -77.4160   -5.0830 O         1 <0>         0.0000
  49020 WAT       -30.1820  -77.4160   -4.8330 O         1 <0>         0.0000
  49021 WAT       -30.1820  -77.4160   -4.5830 O         1 <0>         0.0000
  49022 WAT       -30.1820  -77.4160   -4.3330 O         1 <0>         0.0000
  49023 WAT       -30.1820  -77.4160   -4.0830 O         1 <0>         0.0000
  49024 WAT       -30.1820  -77.4160   -3.8330 O         1 <0>         0.0000
  49025 WAT       -30.1820  -77.4160   -3.5830 O         1 <0>         0.0000
  49026 WAT       -30.1820  -77.4160   -3.3330 O         1 <0>         0.0000
  49027 WAT       -30.1820  -77.4160   -3.0830 O         1 <0>         0.0000
  49028 WAT       -30.1820  -77.4160   -2.8330 O         1 <0>         0.0000
  49029 WAT       -30.1820  -77.4160   -2.5830 O         1 <0>         0.0000
  49030 WAT       -30.1820  -77.4160   -2.3330 O         1 <0>         0.0000
  49031 WAT       -30.1820  -77.4160   -2.0830 O         1 <0>         0.0000
  49032 WAT       -30.1820  -77.4160   -1.8330 O         1 <0>         0.0000
  49033 WAT       -30.1820  -77.4160   -1.5830 O         1 <0>         0.0000
  49034 WAT       -30.1820  -77.4160   -1.3330 O         1 <0>         0.0000
  49035 WAT       -30.1820  -77.4160   -1.0830 O         1 <0>         0.0000
  49036 WAT       -30.1820  -77.4160   -0.8330 O         1 <0>         0.0000
  49037 WAT       -30.1820  -77.4160   -0.5830 O         1 <0>         0.0000
  49038 WAT       -30.1820  -77.4160   -0.3330 O         1 <0>         0.0000
  49039 WAT       -30.1820  -77.4160   -0.0830 O         1 <0>         0.0000
  49040 WAT       -30.1820  -77.1660   -9.8330 O         1 <0>         0.0000
  49041 WAT       -30.1820  -77.1660   -9.5830 O         1 <0>         0.0000
  49042 WAT       -30.1820  -77.1660   -9.3330 O         1 <0>         0.0000
  49043 WAT       -30.1820  -77.1660   -9.0830 O         1 <0>         0.0000
  49044 WAT       -30.1820  -77.1660   -8.8330 O         1 <0>         0.0000
  49045 WAT       -30.1820  -77.1660   -8.5830 O         1 <0>         0.0000
  49046 WAT       -30.1820  -77.1660   -8.3330 O         1 <0>         0.0000
  49047 WAT       -30.1820  -77.1660   -8.0830 O         1 <0>         0.0000
  49048 WAT       -30.1820  -77.1660   -7.8330 O         1 <0>         0.0000
  49049 WAT       -30.1820  -77.1660   -7.5830 O         1 <0>         0.0000
  49050 WAT       -30.1820  -77.1660   -7.3330 O         1 <0>         0.0000
  49051 WAT       -30.1820  -77.1660   -7.0830 O         1 <0>         0.0000
  49052 WAT       -30.1820  -77.1660   -6.8330 O         1 <0>         0.0000
  49053 WAT       -30.1820  -77.1660   -6.5830 O         1 <0>         0.0000
  49054 WAT       -30.1820  -77.1660   -6.3330 O         1 <0>         0.0000
  49055 WAT       -30.1820  -77.1660   -6.0830 O         1 <0>         0.0000
  49056 WAT       -30.1820  -77.1660   -5.8330 O         1 <0>         0.0000
  49057 WAT       -30.1820  -77.1660   -5.5830 O         1 <0>         0.0000
  49058 WAT       -30.1820  -77.1660   -5.3330 O         1 <0>         0.0000
  49059 WAT       -30.1820  -77.1660   -5.0830 O         1 <0>         0.0000
  49060 WAT       -30.1820  -77.1660   -4.8330 O         1 <0>         0.0000
  49061 WAT       -30.1820  -77.1660   -4.5830 O         1 <0>         0.0000
  49062 WAT       -30.1820  -77.1660   -4.3330 O         1 <0>         0.0000
  49063 WAT       -30.1820  -77.1660   -4.0830 O         1 <0>         0.0000
  49064 WAT       -30.1820  -77.1660   -3.8330 O         1 <0>         0.0000
  49065 WAT       -30.1820  -77.1660   -3.5830 O         1 <0>         0.0000
  49066 WAT       -30.1820  -77.1660   -3.3330 O         1 <0>         0.0000
  49067 WAT       -30.1820  -77.1660   -3.0830 O         1 <0>         0.0000
  49068 WAT       -30.1820  -77.1660   -2.8330 O         1 <0>         0.0000
  49069 WAT       -30.1820  -77.1660   -2.5830 O         1 <0>         0.0000
  49070 WAT       -30.1820  -77.1660   -2.3330 O         1 <0>         0.0000
  49071 WAT       -30.1820  -77.1660   -2.0830 O         1 <0>         0.0000
  49072 WAT       -30.1820  -77.1660   -1.8330 O         1 <0>         0.0000
  49073 WAT       -30.1820  -77.1660   -1.5830 O         1 <0>         0.0000
  49074 WAT       -30.1820  -77.1660   -1.3330 O         1 <0>         0.0000
  49075 WAT       -30.1820  -77.1660   -1.0830 O         1 <0>         0.0000
  49076 WAT       -30.1820  -77.1660   -0.8330 O         1 <0>         0.0000
  49077 WAT       -30.1820  -77.1660   -0.5830 O         1 <0>         0.0000
  49078 WAT       -30.1820  -77.1660   -0.3330 O         1 <0>         0.0000
  49079 WAT       -30.1820  -77.1660   -0.0830 O         1 <0>         0.0000
  49080 WAT       -30.1820  -76.9160   -9.8330 O         1 <0>         0.0000
  49081 WAT       -30.1820  -76.9160   -9.5830 O         1 <0>         0.0000
  49082 WAT       -30.1820  -76.9160   -9.3330 O         1 <0>         0.0000
  49083 WAT       -30.1820  -76.9160   -9.0830 O         1 <0>         0.0000
  49084 WAT       -30.1820  -76.9160   -8.8330 O         1 <0>         0.0000
  49085 WAT       -30.1820  -76.9160   -8.5830 O         1 <0>         0.0000
  49086 WAT       -30.1820  -76.9160   -8.3330 O         1 <0>         0.0000
  49087 WAT       -30.1820  -76.9160   -8.0830 O         1 <0>         0.0000
  49088 WAT       -30.1820  -76.9160   -7.8330 O         1 <0>         0.0000
  49089 WAT       -30.1820  -76.9160   -7.5830 O         1 <0>         0.0000
  49090 WAT       -30.1820  -76.9160   -7.3330 O         1 <0>         0.0000
  49091 WAT       -30.1820  -76.9160   -7.0830 O         1 <0>         0.0000
  49092 WAT       -30.1820  -76.9160   -6.8330 O         1 <0>         0.0000
  49093 WAT       -30.1820  -76.9160   -6.5830 O         1 <0>         0.0000
  49094 WAT       -30.1820  -76.9160   -6.3330 O         1 <0>         0.0000
  49095 WAT       -30.1820  -76.9160   -6.0830 O         1 <0>         0.0000
  49096 WAT       -30.1820  -76.9160   -5.8330 O         1 <0>         0.0000
  49097 WAT       -30.1820  -76.9160   -5.5830 O         1 <0>         0.0000
  49098 WAT       -30.1820  -76.9160   -5.3330 O         1 <0>         0.0000
  49099 WAT       -30.1820  -76.9160   -5.0830 O         1 <0>         0.0000
  49100 WAT       -30.1820  -76.9160   -4.8330 O         1 <0>         0.0000
  49101 WAT       -30.1820  -76.9160   -4.5830 O         1 <0>         0.0000
  49102 WAT       -30.1820  -76.9160   -4.3330 O         1 <0>         0.0000
  49103 WAT       -30.1820  -76.9160   -4.0830 O         1 <0>         0.0000
  49104 WAT       -30.1820  -76.9160   -3.8330 O         1 <0>         0.0000
  49105 WAT       -30.1820  -76.9160   -3.5830 O         1 <0>         0.0000
  49106 WAT       -30.1820  -76.9160   -3.3330 O         1 <0>         0.0000
  49107 WAT       -30.1820  -76.9160   -3.0830 O         1 <0>         0.0000
  49108 WAT       -30.1820  -76.9160   -2.8330 O         1 <0>         0.0000
  49109 WAT       -30.1820  -76.9160   -2.5830 O         1 <0>         0.0000
  49110 WAT       -30.1820  -76.9160   -2.3330 O         1 <0>         0.0000
  49111 WAT       -30.1820  -76.9160   -2.0830 O         1 <0>         0.0000
  49112 WAT       -30.1820  -76.9160   -1.8330 O         1 <0>         0.0000
  49113 WAT       -30.1820  -76.9160   -1.5830 O         1 <0>         0.0000
  49114 WAT       -30.1820  -76.9160   -1.3330 O         1 <0>         0.0000
  49115 WAT       -30.1820  -76.9160   -1.0830 O         1 <0>         0.0000
  49116 WAT       -30.1820  -76.9160   -0.8330 O         1 <0>         0.0000
  49117 WAT       -30.1820  -76.9160   -0.5830 O         1 <0>         0.0000
  49118 WAT       -30.1820  -76.9160   -0.3330 O         1 <0>         0.0000
  49119 WAT       -30.1820  -76.9160   -0.0830 O         1 <0>         0.0000
  49120 WAT       -30.1820  -76.6660   -9.8330 O         1 <0>         0.0000
  49121 WAT       -30.1820  -76.6660   -9.5830 O         1 <0>         0.0000
  49122 WAT       -30.1820  -76.6660   -9.3330 O         1 <0>         0.0000
  49123 WAT       -30.1820  -76.6660   -9.0830 O         1 <0>         0.0000
  49124 WAT       -30.1820  -76.6660   -8.8330 O         1 <0>         0.0000
  49125 WAT       -30.1820  -76.6660   -8.5830 O         1 <0>         0.0000
  49126 WAT       -30.1820  -76.6660   -8.3330 O         1 <0>         0.0000
  49127 WAT       -30.1820  -76.6660   -8.0830 O         1 <0>         0.0000
  49128 WAT       -30.1820  -76.6660   -7.8330 O         1 <0>         0.0000
  49129 WAT       -30.1820  -76.6660   -7.5830 O         1 <0>         0.0000
  49130 WAT       -30.1820  -76.6660   -7.3330 O         1 <0>         0.0000
  49131 WAT       -30.1820  -76.6660   -7.0830 O         1 <0>         0.0000
  49132 WAT       -30.1820  -76.6660   -6.8330 O         1 <0>         0.0000
  49133 WAT       -30.1820  -76.6660   -6.5830 O         1 <0>         0.0000
  49134 WAT       -30.1820  -76.6660   -6.3330 O         1 <0>         0.0000
  49135 WAT       -30.1820  -76.6660   -6.0830 O         1 <0>         0.0000
  49136 WAT       -30.1820  -76.6660   -5.8330 O         1 <0>         0.0000
  49137 WAT       -30.1820  -76.6660   -5.5830 O         1 <0>         0.0000
  49138 WAT       -30.1820  -76.6660   -5.3330 O         1 <0>         0.0000
  49139 WAT       -30.1820  -76.6660   -5.0830 O         1 <0>         0.0000
  49140 WAT       -30.1820  -76.6660   -4.8330 O         1 <0>         0.0000
  49141 WAT       -30.1820  -76.6660   -4.5830 O         1 <0>         0.0000
  49142 WAT       -30.1820  -76.6660   -4.3330 O         1 <0>         0.0000
  49143 WAT       -30.1820  -76.6660   -4.0830 O         1 <0>         0.0000
  49144 WAT       -30.1820  -76.6660   -3.8330 O         1 <0>         0.0000
  49145 WAT       -30.1820  -76.6660   -3.5830 O         1 <0>         0.0000
  49146 WAT       -30.1820  -76.6660   -3.3330 O         1 <0>         0.0000
  49147 WAT       -30.1820  -76.6660   -3.0830 O         1 <0>         0.0000
  49148 WAT       -30.1820  -76.6660   -2.8330 O         1 <0>         0.0000
  49149 WAT       -30.1820  -76.6660   -2.5830 O         1 <0>         0.0000
  49150 WAT       -30.1820  -76.6660   -2.3330 O         1 <0>         0.0000
  49151 WAT       -30.1820  -76.6660   -2.0830 O         1 <0>         0.0000
  49152 WAT       -30.1820  -76.6660   -1.8330 O         1 <0>         0.0000
  49153 WAT       -30.1820  -76.6660   -1.5830 O         1 <0>         0.0000
  49154 WAT       -30.1820  -76.6660   -1.3330 O         1 <0>         0.0000
  49155 WAT       -30.1820  -76.6660   -1.0830 O         1 <0>         0.0000
  49156 WAT       -30.1820  -76.6660   -0.8330 O         1 <0>         0.0000
  49157 WAT       -30.1820  -76.6660   -0.5830 O         1 <0>         0.0000
  49158 WAT       -30.1820  -76.6660   -0.3330 O         1 <0>         0.0000
  49159 WAT       -30.1820  -76.6660   -0.0830 O         1 <0>         0.0000
  49160 WAT       -30.1820  -76.4160   -9.8330 O         1 <0>         0.0000
  49161 WAT       -30.1820  -76.4160   -9.5830 O         1 <0>         0.0000
  49162 WAT       -30.1820  -76.4160   -9.3330 O         1 <0>         0.0000
  49163 WAT       -30.1820  -76.4160   -9.0830 O         1 <0>         0.0000
  49164 WAT       -30.1820  -76.4160   -8.8330 O         1 <0>         0.0000
  49165 WAT       -30.1820  -76.4160   -8.5830 O         1 <0>         0.0000
  49166 WAT       -30.1820  -76.4160   -8.3330 O         1 <0>         0.0000
  49167 WAT       -30.1820  -76.4160   -8.0830 O         1 <0>         0.0000
  49168 WAT       -30.1820  -76.4160   -7.8330 O         1 <0>         0.0000
  49169 WAT       -30.1820  -76.4160   -7.5830 O         1 <0>         0.0000
  49170 WAT       -30.1820  -76.4160   -7.3330 O         1 <0>         0.0000
  49171 WAT       -30.1820  -76.4160   -7.0830 O         1 <0>         0.0000
  49172 WAT       -30.1820  -76.4160   -6.8330 O         1 <0>         0.0000
  49173 WAT       -30.1820  -76.4160   -6.5830 O         1 <0>         0.0000
  49174 WAT       -30.1820  -76.4160   -6.3330 O         1 <0>         0.0000
  49175 WAT       -30.1820  -76.4160   -6.0830 O         1 <0>         0.0000
  49176 WAT       -30.1820  -76.4160   -5.8330 O         1 <0>         0.0000
  49177 WAT       -30.1820  -76.4160   -5.5830 O         1 <0>         0.0000
  49178 WAT       -30.1820  -76.4160   -5.3330 O         1 <0>         0.0000
  49179 WAT       -30.1820  -76.4160   -5.0830 O         1 <0>         0.0000
  49180 WAT       -30.1820  -76.4160   -4.8330 O         1 <0>         0.0000
  49181 WAT       -30.1820  -76.4160   -4.5830 O         1 <0>         0.0000
  49182 WAT       -30.1820  -76.4160   -4.3330 O         1 <0>         0.0000
  49183 WAT       -30.1820  -76.4160   -4.0830 O         1 <0>         0.0000
  49184 WAT       -30.1820  -76.4160   -3.8330 O         1 <0>         0.0000
  49185 WAT       -30.1820  -76.4160   -3.5830 O         1 <0>         0.0000
  49186 WAT       -30.1820  -76.4160   -3.3330 O         1 <0>         0.0000
  49187 WAT       -30.1820  -76.4160   -3.0830 O         1 <0>         0.0000
  49188 WAT       -30.1820  -76.4160   -2.8330 O         1 <0>         0.0000
  49189 WAT       -30.1820  -76.4160   -2.5830 O         1 <0>         0.0000
  49190 WAT       -30.1820  -76.4160   -2.3330 O         1 <0>         0.0000
  49191 WAT       -30.1820  -76.4160   -2.0830 O         1 <0>         0.0000
  49192 WAT       -30.1820  -76.4160   -1.8330 O         1 <0>         0.0000
  49193 WAT       -30.1820  -76.4160   -1.5830 O         1 <0>         0.0000
  49194 WAT       -30.1820  -76.4160   -1.3330 O         1 <0>         0.0000
  49195 WAT       -30.1820  -76.4160   -1.0830 O         1 <0>         0.0000
  49196 WAT       -30.1820  -76.4160   -0.8330 O         1 <0>         0.0000
  49197 WAT       -30.1820  -76.4160   -0.5830 O         1 <0>         0.0000
  49198 WAT       -30.1820  -76.4160   -0.3330 O         1 <0>         0.0000
  49199 WAT       -30.1820  -76.4160   -0.0830 O         1 <0>         0.0000
  49200 WAT       -30.1820  -76.1660   -9.8330 O         1 <0>         0.0000
  49201 WAT       -30.1820  -76.1660   -9.5830 O         1 <0>         0.0000
  49202 WAT       -30.1820  -76.1660   -9.3330 O         1 <0>         0.0000
  49203 WAT       -30.1820  -76.1660   -9.0830 O         1 <0>         0.0000
  49204 WAT       -30.1820  -76.1660   -8.8330 O         1 <0>         0.0000
  49205 WAT       -30.1820  -76.1660   -8.5830 O         1 <0>         0.0000
  49206 WAT       -30.1820  -76.1660   -8.3330 O         1 <0>         0.0000
  49207 WAT       -30.1820  -76.1660   -8.0830 O         1 <0>         0.0000
  49208 WAT       -30.1820  -76.1660   -7.8330 O         1 <0>         0.0000
  49209 WAT       -30.1820  -76.1660   -7.5830 O         1 <0>         0.0000
  49210 WAT       -30.1820  -76.1660   -7.3330 O         1 <0>         0.0000
  49211 WAT       -30.1820  -76.1660   -7.0830 O         1 <0>         0.0000
  49212 WAT       -30.1820  -76.1660   -6.8330 O         1 <0>         0.0000
  49213 WAT       -30.1820  -76.1660   -6.5830 O         1 <0>         0.0000
  49214 WAT       -30.1820  -76.1660   -6.3330 O         1 <0>         0.0000
  49215 WAT       -30.1820  -76.1660   -6.0830 O         1 <0>         0.0000
  49216 WAT       -30.1820  -76.1660   -5.8330 O         1 <0>         0.0000
  49217 WAT       -30.1820  -76.1660   -5.5830 O         1 <0>         0.0000
  49218 WAT       -30.1820  -76.1660   -5.3330 O         1 <0>         0.0000
  49219 WAT       -30.1820  -76.1660   -5.0830 O         1 <0>         0.0000
  49220 WAT       -30.1820  -76.1660   -4.8330 O         1 <0>         0.0000
  49221 WAT       -30.1820  -76.1660   -4.5830 O         1 <0>         0.0000
  49222 WAT       -30.1820  -76.1660   -4.3330 O         1 <0>         0.0000
  49223 WAT       -30.1820  -76.1660   -4.0830 O         1 <0>         0.0000
  49224 WAT       -30.1820  -76.1660   -3.8330 O         1 <0>         0.0000
  49225 WAT       -30.1820  -76.1660   -3.5830 O         1 <0>         0.0000
  49226 WAT       -30.1820  -76.1660   -3.3330 O         1 <0>         0.0000
  49227 WAT       -30.1820  -76.1660   -3.0830 O         1 <0>         0.0000
  49228 WAT       -30.1820  -76.1660   -2.8330 O         1 <0>         0.0000
  49229 WAT       -30.1820  -76.1660   -2.5830 O         1 <0>         0.0000
  49230 WAT       -30.1820  -76.1660   -2.3330 O         1 <0>         0.0000
  49231 WAT       -30.1820  -76.1660   -2.0830 O         1 <0>         0.0000
  49232 WAT       -30.1820  -76.1660   -1.8330 O         1 <0>         0.0000
  49233 WAT       -30.1820  -76.1660   -1.5830 O         1 <0>         0.0000
  49234 WAT       -30.1820  -76.1660   -1.3330 O         1 <0>         0.0000
  49235 WAT       -30.1820  -76.1660   -1.0830 O         1 <0>         0.0000
  49236 WAT       -30.1820  -76.1660   -0.8330 O         1 <0>         0.0000
  49237 WAT       -30.1820  -76.1660   -0.5830 O         1 <0>         0.0000
  49238 WAT       -30.1820  -76.1660   -0.3330 O         1 <0>         0.0000
  49239 WAT       -30.1820  -76.1660   -0.0830 O         1 <0>         0.0000
  49240 WAT       -30.1820  -75.9160   -9.8330 O         1 <0>         0.0000
  49241 WAT       -30.1820  -75.9160   -9.5830 O         1 <0>         0.0000
  49242 WAT       -30.1820  -75.9160   -9.3330 O         1 <0>         0.0000
  49243 WAT       -30.1820  -75.9160   -9.0830 O         1 <0>         0.0000
  49244 WAT       -30.1820  -75.9160   -8.8330 O         1 <0>         0.0000
  49245 WAT       -30.1820  -75.9160   -8.5830 O         1 <0>         0.0000
  49246 WAT       -30.1820  -75.9160   -8.3330 O         1 <0>         0.0000
  49247 WAT       -30.1820  -75.9160   -8.0830 O         1 <0>         0.0000
  49248 WAT       -30.1820  -75.9160   -7.8330 O         1 <0>         0.0000
  49249 WAT       -30.1820  -75.9160   -7.5830 O         1 <0>         0.0000
  49250 WAT       -30.1820  -75.9160   -7.3330 O         1 <0>         0.0000
  49251 WAT       -30.1820  -75.9160   -7.0830 O         1 <0>         0.0000
  49252 WAT       -30.1820  -75.9160   -6.8330 O         1 <0>         0.0000
  49253 WAT       -30.1820  -75.9160   -6.5830 O         1 <0>         0.0000
  49254 WAT       -30.1820  -75.9160   -6.3330 O         1 <0>         0.0000
  49255 WAT       -30.1820  -75.9160   -6.0830 O         1 <0>         0.0000
  49256 WAT       -30.1820  -75.9160   -5.8330 O         1 <0>         0.0000
  49257 WAT       -30.1820  -75.9160   -5.5830 O         1 <0>         0.0000
  49258 WAT       -30.1820  -75.9160   -5.3330 O         1 <0>         0.0000
  49259 WAT       -30.1820  -75.9160   -5.0830 O         1 <0>         0.0000
  49260 WAT       -30.1820  -75.9160   -4.8330 O         1 <0>         0.0000
  49261 WAT       -30.1820  -75.9160   -4.5830 O         1 <0>         0.0000
  49262 WAT       -30.1820  -75.9160   -4.3330 O         1 <0>         0.0000
  49263 WAT       -30.1820  -75.9160   -4.0830 O         1 <0>         0.0000
  49264 WAT       -30.1820  -75.9160   -3.8330 O         1 <0>         0.0000
  49265 WAT       -30.1820  -75.9160   -3.5830 O         1 <0>         0.0000
  49266 WAT       -30.1820  -75.9160   -3.3330 O         1 <0>         0.0000
  49267 WAT       -30.1820  -75.9160   -3.0830 O         1 <0>         0.0000
  49268 WAT       -30.1820  -75.9160   -2.8330 O         1 <0>         0.0000
  49269 WAT       -30.1820  -75.9160   -2.5830 O         1 <0>         0.0000
  49270 WAT       -30.1820  -75.9160   -2.3330 O         1 <0>         0.0000
  49271 WAT       -30.1820  -75.9160   -2.0830 O         1 <0>         0.0000
  49272 WAT       -30.1820  -75.9160   -1.8330 O         1 <0>         0.0000
  49273 WAT       -30.1820  -75.9160   -1.5830 O         1 <0>         0.0000
  49274 WAT       -30.1820  -75.9160   -1.3330 O         1 <0>         0.0000
  49275 WAT       -30.1820  -75.9160   -1.0830 O         1 <0>         0.0000
  49276 WAT       -30.1820  -75.9160   -0.8330 O         1 <0>         0.0000
  49277 WAT       -30.1820  -75.9160   -0.5830 O         1 <0>         0.0000
  49278 WAT       -30.1820  -75.9160   -0.3330 O         1 <0>         0.0000
  49279 WAT       -30.1820  -75.9160   -0.0830 O         1 <0>         0.0000
  49280 WAT       -30.1820  -75.6660   -9.8330 O         1 <0>         0.0000
  49281 WAT       -30.1820  -75.6660   -9.5830 O         1 <0>         0.0000
  49282 WAT       -30.1820  -75.6660   -9.3330 O         1 <0>         0.0000
  49283 WAT       -30.1820  -75.6660   -9.0830 O         1 <0>         0.0000
  49284 WAT       -30.1820  -75.6660   -8.8330 O         1 <0>         0.0000
  49285 WAT       -30.1820  -75.6660   -8.5830 O         1 <0>         0.0000
  49286 WAT       -30.1820  -75.6660   -8.3330 O         1 <0>         0.0000
  49287 WAT       -30.1820  -75.6660   -8.0830 O         1 <0>         0.0000
  49288 WAT       -30.1820  -75.6660   -7.8330 O         1 <0>         0.0000
  49289 WAT       -30.1820  -75.6660   -7.5830 O         1 <0>         0.0000
  49290 WAT       -30.1820  -75.6660   -7.3330 O         1 <0>         0.0000
  49291 WAT       -30.1820  -75.6660   -7.0830 O         1 <0>         0.0000
  49292 WAT       -30.1820  -75.6660   -6.8330 O         1 <0>         0.0000
  49293 WAT       -30.1820  -75.6660   -6.5830 O         1 <0>         0.0000
  49294 WAT       -30.1820  -75.6660   -6.3330 O         1 <0>         0.0000
  49295 WAT       -30.1820  -75.6660   -6.0830 O         1 <0>         0.0000
  49296 WAT       -30.1820  -75.6660   -5.8330 O         1 <0>         0.0000
  49297 WAT       -30.1820  -75.6660   -5.5830 O         1 <0>         0.0000
  49298 WAT       -30.1820  -75.6660   -5.3330 O         1 <0>         0.0000
  49299 WAT       -30.1820  -75.6660   -5.0830 O         1 <0>         0.0000
  49300 WAT       -30.1820  -75.6660   -4.8330 O         1 <0>         0.0000
  49301 WAT       -30.1820  -75.6660   -4.5830 O         1 <0>         0.0000
  49302 WAT       -30.1820  -75.6660   -4.3330 O         1 <0>         0.0000
  49303 WAT       -30.1820  -75.6660   -4.0830 O         1 <0>         0.0000
  49304 WAT       -30.1820  -75.6660   -3.8330 O         1 <0>         0.0000
  49305 WAT       -30.1820  -75.6660   -3.5830 O         1 <0>         0.0000
  49306 WAT       -30.1820  -75.6660   -3.3330 O         1 <0>         0.0000
  49307 WAT       -30.1820  -75.6660   -3.0830 O         1 <0>         0.0000
  49308 WAT       -30.1820  -75.6660   -2.8330 O         1 <0>         0.0000
  49309 WAT       -30.1820  -75.6660   -2.5830 O         1 <0>         0.0000
  49310 WAT       -30.1820  -75.6660   -2.3330 O         1 <0>         0.0000
  49311 WAT       -30.1820  -75.6660   -2.0830 O         1 <0>         0.0000
  49312 WAT       -30.1820  -75.6660   -1.8330 O         1 <0>         0.0000
  49313 WAT       -30.1820  -75.6660   -1.5830 O         1 <0>         0.0000
  49314 WAT       -30.1820  -75.6660   -1.3330 O         1 <0>         0.0000
  49315 WAT       -30.1820  -75.6660   -1.0830 O         1 <0>         0.0000
  49316 WAT       -30.1820  -75.6660   -0.8330 O         1 <0>         0.0000
  49317 WAT       -30.1820  -75.6660   -0.5830 O         1 <0>         0.0000
  49318 WAT       -30.1820  -75.6660   -0.3330 O         1 <0>         0.0000
  49319 WAT       -30.1820  -75.6660   -0.0830 O         1 <0>         0.0000
  49320 WAT       -30.1820  -75.4160   -9.8330 O         1 <0>         0.0000
  49321 WAT       -30.1820  -75.4160   -9.5830 O         1 <0>         0.0000
  49322 WAT       -30.1820  -75.4160   -9.3330 O         1 <0>         0.0000
  49323 WAT       -30.1820  -75.4160   -9.0830 O         1 <0>         0.0000
  49324 WAT       -30.1820  -75.4160   -8.8330 O         1 <0>         0.0000
  49325 WAT       -30.1820  -75.4160   -8.5830 O         1 <0>         0.0000
  49326 WAT       -30.1820  -75.4160   -8.3330 O         1 <0>         0.0000
  49327 WAT       -30.1820  -75.4160   -8.0830 O         1 <0>         0.0000
  49328 WAT       -30.1820  -75.4160   -7.8330 O         1 <0>         0.0000
  49329 WAT       -30.1820  -75.4160   -7.5830 O         1 <0>         0.0000
  49330 WAT       -30.1820  -75.4160   -7.3330 O         1 <0>         0.0000
  49331 WAT       -30.1820  -75.4160   -7.0830 O         1 <0>         0.0000
  49332 WAT       -30.1820  -75.4160   -6.8330 O         1 <0>         0.0000
  49333 WAT       -30.1820  -75.4160   -6.5830 O         1 <0>         0.0000
  49334 WAT       -30.1820  -75.4160   -6.3330 O         1 <0>         0.0000
  49335 WAT       -30.1820  -75.4160   -6.0830 O         1 <0>         0.0000
  49336 WAT       -30.1820  -75.4160   -5.8330 O         1 <0>         0.0000
  49337 WAT       -30.1820  -75.4160   -5.5830 O         1 <0>         0.0000
  49338 WAT       -30.1820  -75.4160   -5.3330 O         1 <0>         0.0000
  49339 WAT       -30.1820  -75.4160   -5.0830 O         1 <0>         0.0000
  49340 WAT       -30.1820  -75.4160   -4.8330 O         1 <0>         0.0000
  49341 WAT       -30.1820  -75.4160   -4.5830 O         1 <0>         0.0000
  49342 WAT       -30.1820  -75.4160   -4.3330 O         1 <0>         0.0000
  49343 WAT       -30.1820  -75.4160   -4.0830 O         1 <0>         0.0000
  49344 WAT       -30.1820  -75.4160   -3.8330 O         1 <0>         0.0000
  49345 WAT       -30.1820  -75.4160   -3.5830 O         1 <0>         0.0000
  49346 WAT       -30.1820  -75.4160   -3.3330 O         1 <0>         0.0000
  49347 WAT       -30.1820  -75.4160   -3.0830 O         1 <0>         0.0000
  49348 WAT       -30.1820  -75.4160   -2.8330 O         1 <0>         0.0000
  49349 WAT       -30.1820  -75.4160   -2.5830 O         1 <0>         0.0000
  49350 WAT       -30.1820  -75.4160   -2.3330 O         1 <0>         0.0000
  49351 WAT       -30.1820  -75.4160   -2.0830 O         1 <0>         0.0000
  49352 WAT       -30.1820  -75.4160   -1.8330 O         1 <0>         0.0000
  49353 WAT       -30.1820  -75.4160   -1.5830 O         1 <0>         0.0000
  49354 WAT       -30.1820  -75.4160   -1.3330 O         1 <0>         0.0000
  49355 WAT       -30.1820  -75.4160   -1.0830 O         1 <0>         0.0000
  49356 WAT       -30.1820  -75.4160   -0.8330 O         1 <0>         0.0000
  49357 WAT       -30.1820  -75.4160   -0.5830 O         1 <0>         0.0000
  49358 WAT       -30.1820  -75.4160   -0.3330 O         1 <0>         0.0000
  49359 WAT       -30.1820  -75.4160   -0.0830 O         1 <0>         0.0000
  49360 WAT       -30.1820  -75.1660   -9.8330 O         1 <0>         0.0000
  49361 WAT       -30.1820  -75.1660   -9.5830 O         1 <0>         0.0000
  49362 WAT       -30.1820  -75.1660   -9.3330 O         1 <0>         0.0000
  49363 WAT       -30.1820  -75.1660   -9.0830 O         1 <0>         0.0000
  49364 WAT       -30.1820  -75.1660   -8.8330 O         1 <0>         0.0000
  49365 WAT       -30.1820  -75.1660   -8.5830 O         1 <0>         0.0000
  49366 WAT       -30.1820  -75.1660   -8.3330 O         1 <0>         0.0000
  49367 WAT       -30.1820  -75.1660   -8.0830 O         1 <0>         0.0000
  49368 WAT       -30.1820  -75.1660   -7.8330 O         1 <0>         0.0000
  49369 WAT       -30.1820  -75.1660   -7.5830 O         1 <0>         0.0000
  49370 WAT       -30.1820  -75.1660   -7.3330 O         1 <0>         0.0000
  49371 WAT       -30.1820  -75.1660   -7.0830 O         1 <0>         0.0000
  49372 WAT       -30.1820  -75.1660   -6.8330 O         1 <0>         0.0000
  49373 WAT       -30.1820  -75.1660   -6.5830 O         1 <0>         0.0000
  49374 WAT       -30.1820  -75.1660   -6.3330 O         1 <0>         0.0000
  49375 WAT       -30.1820  -75.1660   -6.0830 O         1 <0>         0.0000
  49376 WAT       -30.1820  -75.1660   -5.8330 O         1 <0>         0.0000
  49377 WAT       -30.1820  -75.1660   -5.5830 O         1 <0>         0.0000
  49378 WAT       -30.1820  -75.1660   -5.3330 O         1 <0>         0.0000
  49379 WAT       -30.1820  -75.1660   -5.0830 O         1 <0>         0.0000
  49380 WAT       -30.1820  -75.1660   -4.8330 O         1 <0>         0.0000
  49381 WAT       -30.1820  -75.1660   -4.5830 O         1 <0>         0.0000
  49382 WAT       -30.1820  -75.1660   -4.3330 O         1 <0>         0.0000
  49383 WAT       -30.1820  -75.1660   -4.0830 O         1 <0>         0.0000
  49384 WAT       -30.1820  -75.1660   -3.8330 O         1 <0>         0.0000
  49385 WAT       -30.1820  -75.1660   -3.5830 O         1 <0>         0.0000
  49386 WAT       -30.1820  -75.1660   -3.3330 O         1 <0>         0.0000
  49387 WAT       -30.1820  -75.1660   -3.0830 O         1 <0>         0.0000
  49388 WAT       -30.1820  -75.1660   -2.8330 O         1 <0>         0.0000
  49389 WAT       -30.1820  -75.1660   -2.5830 O         1 <0>         0.0000
  49390 WAT       -30.1820  -75.1660   -2.3330 O         1 <0>         0.0000
  49391 WAT       -30.1820  -75.1660   -2.0830 O         1 <0>         0.0000
  49392 WAT       -30.1820  -75.1660   -1.8330 O         1 <0>         0.0000
  49393 WAT       -30.1820  -75.1660   -1.5830 O         1 <0>         0.0000
  49394 WAT       -30.1820  -75.1660   -1.3330 O         1 <0>         0.0000
  49395 WAT       -30.1820  -75.1660   -1.0830 O         1 <0>         0.0000
  49396 WAT       -30.1820  -75.1660   -0.8330 O         1 <0>         0.0000
  49397 WAT       -30.1820  -75.1660   -0.5830 O         1 <0>         0.0000
  49398 WAT       -30.1820  -75.1660   -0.3330 O         1 <0>         0.0000
  49399 WAT       -30.1820  -75.1660   -0.0830 O         1 <0>         0.0000
  49400 WAT       -30.1820  -74.9160   -9.8330 O         1 <0>         0.0000
  49401 WAT       -30.1820  -74.9160   -9.5830 O         1 <0>         0.0000
  49402 WAT       -30.1820  -74.9160   -9.3330 O         1 <0>         0.0000
  49403 WAT       -30.1820  -74.9160   -9.0830 O         1 <0>         0.0000
  49404 WAT       -30.1820  -74.9160   -8.8330 O         1 <0>         0.0000
  49405 WAT       -30.1820  -74.9160   -8.5830 O         1 <0>         0.0000
  49406 WAT       -30.1820  -74.9160   -8.3330 O         1 <0>         0.0000
  49407 WAT       -30.1820  -74.9160   -8.0830 O         1 <0>         0.0000
  49408 WAT       -30.1820  -74.9160   -7.8330 O         1 <0>         0.0000
  49409 WAT       -30.1820  -74.9160   -7.5830 O         1 <0>         0.0000
  49410 WAT       -30.1820  -74.9160   -7.3330 O         1 <0>         0.0000
  49411 WAT       -30.1820  -74.9160   -7.0830 O         1 <0>         0.0000
  49412 WAT       -30.1820  -74.9160   -6.8330 O         1 <0>         0.0000
  49413 WAT       -30.1820  -74.9160   -6.5830 O         1 <0>         0.0000
  49414 WAT       -30.1820  -74.9160   -6.3330 O         1 <0>         0.0000
  49415 WAT       -30.1820  -74.9160   -6.0830 O         1 <0>         0.0000
  49416 WAT       -30.1820  -74.9160   -5.8330 O         1 <0>         0.0000
  49417 WAT       -30.1820  -74.9160   -5.5830 O         1 <0>         0.0000
  49418 WAT       -30.1820  -74.9160   -5.3330 O         1 <0>         0.0000
  49419 WAT       -30.1820  -74.9160   -5.0830 O         1 <0>         0.0000
  49420 WAT       -30.1820  -74.9160   -4.8330 O         1 <0>         0.0000
  49421 WAT       -30.1820  -74.9160   -4.5830 O         1 <0>         0.0000
  49422 WAT       -30.1820  -74.9160   -4.3330 O         1 <0>         0.0000
  49423 WAT       -30.1820  -74.9160   -4.0830 O         1 <0>         0.0000
  49424 WAT       -30.1820  -74.9160   -3.8330 O         1 <0>         0.0000
  49425 WAT       -30.1820  -74.9160   -3.5830 O         1 <0>         0.0000
  49426 WAT       -30.1820  -74.9160   -3.3330 O         1 <0>         0.0000
  49427 WAT       -30.1820  -74.9160   -3.0830 O         1 <0>         0.0000
  49428 WAT       -30.1820  -74.9160   -2.8330 O         1 <0>         0.0000
  49429 WAT       -30.1820  -74.9160   -2.5830 O         1 <0>         0.0000
  49430 WAT       -30.1820  -74.9160   -2.3330 O         1 <0>         0.0000
  49431 WAT       -30.1820  -74.9160   -2.0830 O         1 <0>         0.0000
  49432 WAT       -30.1820  -74.9160   -1.8330 O         1 <0>         0.0000
  49433 WAT       -30.1820  -74.9160   -1.5830 O         1 <0>         0.0000
  49434 WAT       -30.1820  -74.9160   -1.3330 O         1 <0>         0.0000
  49435 WAT       -30.1820  -74.9160   -1.0830 O         1 <0>         0.0000
  49436 WAT       -30.1820  -74.9160   -0.8330 O         1 <0>         0.0000
  49437 WAT       -30.1820  -74.9160   -0.5830 O         1 <0>         0.0000
  49438 WAT       -30.1820  -74.9160   -0.3330 O         1 <0>         0.0000
  49439 WAT       -30.1820  -74.9160   -0.0830 O         1 <0>         0.0000
  49440 WAT       -30.1820  -74.6660   -9.8330 O         1 <0>         0.0000
  49441 WAT       -30.1820  -74.6660   -9.5830 O         1 <0>         0.0000
  49442 WAT       -30.1820  -74.6660   -9.3330 O         1 <0>         0.0000
  49443 WAT       -30.1820  -74.6660   -9.0830 O         1 <0>         0.0000
  49444 WAT       -30.1820  -74.6660   -8.8330 O         1 <0>         0.0000
  49445 WAT       -30.1820  -74.6660   -8.5830 O         1 <0>         0.0000
  49446 WAT       -30.1820  -74.6660   -8.3330 O         1 <0>         0.0000
  49447 WAT       -30.1820  -74.6660   -8.0830 O         1 <0>         0.0000
  49448 WAT       -30.1820  -74.6660   -7.8330 O         1 <0>         0.0000
  49449 WAT       -30.1820  -74.6660   -7.5830 O         1 <0>         0.0000
  49450 WAT       -30.1820  -74.6660   -7.3330 O         1 <0>         0.0000
  49451 WAT       -30.1820  -74.6660   -7.0830 O         1 <0>         0.0000
  49452 WAT       -30.1820  -74.6660   -6.8330 O         1 <0>         0.0000
  49453 WAT       -30.1820  -74.6660   -6.5830 O         1 <0>         0.0000
  49454 WAT       -30.1820  -74.6660   -6.3330 O         1 <0>         0.0000
  49455 WAT       -30.1820  -74.6660   -6.0830 O         1 <0>         0.0000
  49456 WAT       -30.1820  -74.6660   -5.8330 O         1 <0>         0.0000
  49457 WAT       -30.1820  -74.6660   -5.5830 O         1 <0>         0.0000
  49458 WAT       -30.1820  -74.6660   -5.3330 O         1 <0>         0.0000
  49459 WAT       -30.1820  -74.6660   -5.0830 O         1 <0>         0.0000
  49460 WAT       -30.1820  -74.6660   -4.8330 O         1 <0>         0.0000
  49461 WAT       -30.1820  -74.6660   -4.5830 O         1 <0>         0.0000
  49462 WAT       -30.1820  -74.6660   -4.3330 O         1 <0>         0.0000
  49463 WAT       -30.1820  -74.6660   -4.0830 O         1 <0>         0.0000
  49464 WAT       -30.1820  -74.6660   -3.8330 O         1 <0>         0.0000
  49465 WAT       -30.1820  -74.6660   -3.5830 O         1 <0>         0.0000
  49466 WAT       -30.1820  -74.6660   -3.3330 O         1 <0>         0.0000
  49467 WAT       -30.1820  -74.6660   -3.0830 O         1 <0>         0.0000
  49468 WAT       -30.1820  -74.6660   -2.8330 O         1 <0>         0.0000
  49469 WAT       -30.1820  -74.6660   -2.5830 O         1 <0>         0.0000
  49470 WAT       -30.1820  -74.6660   -2.3330 O         1 <0>         0.0000
  49471 WAT       -30.1820  -74.6660   -2.0830 O         1 <0>         0.0000
  49472 WAT       -30.1820  -74.6660   -1.8330 O         1 <0>         0.0000
  49473 WAT       -30.1820  -74.6660   -1.5830 O         1 <0>         0.0000
  49474 WAT       -30.1820  -74.6660   -1.3330 O         1 <0>         0.0000
  49475 WAT       -30.1820  -74.6660   -1.0830 O         1 <0>         0.0000
  49476 WAT       -30.1820  -74.6660   -0.8330 O         1 <0>         0.0000
  49477 WAT       -30.1820  -74.6660   -0.5830 O         1 <0>         0.0000
  49478 WAT       -30.1820  -74.6660   -0.3330 O         1 <0>         0.0000
  49479 WAT       -30.1820  -74.6660   -0.0830 O         1 <0>         0.0000
  49480 WAT       -30.1820  -74.4160   -9.8330 O         1 <0>         0.0000
  49481 WAT       -30.1820  -74.4160   -9.5830 O         1 <0>         0.0000
  49482 WAT       -30.1820  -74.4160   -9.3330 O         1 <0>         0.0000
  49483 WAT       -30.1820  -74.4160   -9.0830 O         1 <0>         0.0000
  49484 WAT       -30.1820  -74.4160   -8.8330 O         1 <0>         0.0000
  49485 WAT       -30.1820  -74.4160   -8.5830 O         1 <0>         0.0000
  49486 WAT       -30.1820  -74.4160   -8.3330 O         1 <0>         0.0000
  49487 WAT       -30.1820  -74.4160   -8.0830 O         1 <0>         0.0000
  49488 WAT       -30.1820  -74.4160   -7.8330 O         1 <0>         0.0000
  49489 WAT       -30.1820  -74.4160   -7.5830 O         1 <0>         0.0000
  49490 WAT       -30.1820  -74.4160   -7.3330 O         1 <0>         0.0000
  49491 WAT       -30.1820  -74.4160   -7.0830 O         1 <0>         0.0000
  49492 WAT       -30.1820  -74.4160   -6.8330 O         1 <0>         0.0000
  49493 WAT       -30.1820  -74.4160   -6.5830 O         1 <0>         0.0000
  49494 WAT       -30.1820  -74.4160   -6.3330 O         1 <0>         0.0000
  49495 WAT       -30.1820  -74.4160   -6.0830 O         1 <0>         0.0000
  49496 WAT       -30.1820  -74.4160   -5.8330 O         1 <0>         0.0000
  49497 WAT       -30.1820  -74.4160   -5.5830 O         1 <0>         0.0000
  49498 WAT       -30.1820  -74.4160   -5.3330 O         1 <0>         0.0000
  49499 WAT       -30.1820  -74.4160   -5.0830 O         1 <0>         0.0000
  49500 WAT       -30.1820  -74.4160   -4.8330 O         1 <0>         0.0000
  49501 WAT       -30.1820  -74.4160   -4.5830 O         1 <0>         0.0000
  49502 WAT       -30.1820  -74.4160   -4.3330 O         1 <0>         0.0000
  49503 WAT       -30.1820  -74.4160   -4.0830 O         1 <0>         0.0000
  49504 WAT       -30.1820  -74.4160   -3.8330 O         1 <0>         0.0000
  49505 WAT       -30.1820  -74.4160   -3.5830 O         1 <0>         0.0000
  49506 WAT       -30.1820  -74.4160   -3.3330 O         1 <0>         0.0000
  49507 WAT       -30.1820  -74.4160   -3.0830 O         1 <0>         0.0000
  49508 WAT       -30.1820  -74.4160   -2.8330 O         1 <0>         0.0000
  49509 WAT       -30.1820  -74.4160   -2.5830 O         1 <0>         0.0000
  49510 WAT       -30.1820  -74.4160   -2.3330 O         1 <0>         0.0000
  49511 WAT       -30.1820  -74.4160   -2.0830 O         1 <0>         0.0000
  49512 WAT       -30.1820  -74.4160   -1.8330 O         1 <0>         0.0000
  49513 WAT       -30.1820  -74.4160   -1.5830 O         1 <0>         0.0000
  49514 WAT       -30.1820  -74.4160   -1.3330 O         1 <0>         0.0000
  49515 WAT       -30.1820  -74.4160   -1.0830 O         1 <0>         0.0000
  49516 WAT       -30.1820  -74.4160   -0.8330 O         1 <0>         0.0000
  49517 WAT       -30.1820  -74.4160   -0.5830 O         1 <0>         0.0000
  49518 WAT       -30.1820  -74.4160   -0.3330 O         1 <0>         0.0000
  49519 WAT       -30.1820  -74.4160   -0.0830 O         1 <0>         0.0000
  49520 WAT       -30.1820  -74.1660   -9.8330 O         1 <0>         0.0000
  49521 WAT       -30.1820  -74.1660   -9.5830 O         1 <0>         0.0000
  49522 WAT       -30.1820  -74.1660   -9.3330 O         1 <0>         0.0000
  49523 WAT       -30.1820  -74.1660   -9.0830 O         1 <0>         0.0000
  49524 WAT       -30.1820  -74.1660   -8.8330 O         1 <0>         0.0000
  49525 WAT       -30.1820  -74.1660   -8.5830 O         1 <0>         0.0000
  49526 WAT       -30.1820  -74.1660   -8.3330 O         1 <0>         0.0000
  49527 WAT       -30.1820  -74.1660   -8.0830 O         1 <0>         0.0000
  49528 WAT       -30.1820  -74.1660   -7.8330 O         1 <0>         0.0000
  49529 WAT       -30.1820  -74.1660   -7.5830 O         1 <0>         0.0000
  49530 WAT       -30.1820  -74.1660   -7.3330 O         1 <0>         0.0000
  49531 WAT       -30.1820  -74.1660   -7.0830 O         1 <0>         0.0000
  49532 WAT       -30.1820  -74.1660   -6.8330 O         1 <0>         0.0000
  49533 WAT       -30.1820  -74.1660   -6.5830 O         1 <0>         0.0000
  49534 WAT       -30.1820  -74.1660   -6.3330 O         1 <0>         0.0000
  49535 WAT       -30.1820  -74.1660   -6.0830 O         1 <0>         0.0000
  49536 WAT       -30.1820  -74.1660   -5.8330 O         1 <0>         0.0000
  49537 WAT       -30.1820  -74.1660   -5.5830 O         1 <0>         0.0000
  49538 WAT       -30.1820  -74.1660   -5.3330 O         1 <0>         0.0000
  49539 WAT       -30.1820  -74.1660   -5.0830 O         1 <0>         0.0000
  49540 WAT       -30.1820  -74.1660   -4.8330 O         1 <0>         0.0000
  49541 WAT       -30.1820  -74.1660   -4.5830 O         1 <0>         0.0001
  49542 WAT       -30.1820  -74.1660   -4.3330 O         1 <0>         0.0001
  49543 WAT       -30.1820  -74.1660   -4.0830 O         1 <0>         0.0000
  49544 WAT       -30.1820  -74.1660   -3.8330 O         1 <0>         0.0000
  49545 WAT       -30.1820  -74.1660   -3.5830 O         1 <0>         0.0000
  49546 WAT       -30.1820  -74.1660   -3.3330 O         1 <0>         0.0000
  49547 WAT       -30.1820  -74.1660   -3.0830 O         1 <0>         0.0000
  49548 WAT       -30.1820  -74.1660   -2.8330 O         1 <0>         0.0000
  49549 WAT       -30.1820  -74.1660   -2.5830 O         1 <0>         0.0000
  49550 WAT       -30.1820  -74.1660   -2.3330 O         1 <0>         0.0000
  49551 WAT       -30.1820  -74.1660   -2.0830 O         1 <0>         0.0000
  49552 WAT       -30.1820  -74.1660   -1.8330 O         1 <0>         0.0000
  49553 WAT       -30.1820  -74.1660   -1.5830 O         1 <0>         0.0000
  49554 WAT       -30.1820  -74.1660   -1.3330 O         1 <0>         0.0000
  49555 WAT       -30.1820  -74.1660   -1.0830 O         1 <0>         0.0000
  49556 WAT       -30.1820  -74.1660   -0.8330 O         1 <0>         0.0000
  49557 WAT       -30.1820  -74.1660   -0.5830 O         1 <0>         0.0000
  49558 WAT       -30.1820  -74.1660   -0.3330 O         1 <0>         0.0000
  49559 WAT       -30.1820  -74.1660   -0.0830 O         1 <0>         0.0000
  49560 WAT       -30.1820  -73.9160   -9.8330 O         1 <0>         0.0000
  49561 WAT       -30.1820  -73.9160   -9.5830 O         1 <0>         0.0000
  49562 WAT       -30.1820  -73.9160   -9.3330 O         1 <0>         0.0000
  49563 WAT       -30.1820  -73.9160   -9.0830 O         1 <0>         0.0000
  49564 WAT       -30.1820  -73.9160   -8.8330 O         1 <0>         0.0000
  49565 WAT       -30.1820  -73.9160   -8.5830 O         1 <0>         0.0000
  49566 WAT       -30.1820  -73.9160   -8.3330 O         1 <0>         0.0000
  49567 WAT       -30.1820  -73.9160   -8.0830 O         1 <0>         0.0000
  49568 WAT       -30.1820  -73.9160   -7.8330 O         1 <0>         0.0000
  49569 WAT       -30.1820  -73.9160   -7.5830 O         1 <0>         0.0000
  49570 WAT       -30.1820  -73.9160   -7.3330 O         1 <0>         0.0000
  49571 WAT       -30.1820  -73.9160   -7.0830 O         1 <0>         0.0000
  49572 WAT       -30.1820  -73.9160   -6.8330 O         1 <0>         0.0000
  49573 WAT       -30.1820  -73.9160   -6.5830 O         1 <0>         0.0000
  49574 WAT       -30.1820  -73.9160   -6.3330 O         1 <0>         0.0000
  49575 WAT       -30.1820  -73.9160   -6.0830 O         1 <0>         0.0000
  49576 WAT       -30.1820  -73.9160   -5.8330 O         1 <0>         0.0000
  49577 WAT       -30.1820  -73.9160   -5.5830 O         1 <0>         0.0000
  49578 WAT       -30.1820  -73.9160   -5.3330 O         1 <0>         0.0000
  49579 WAT       -30.1820  -73.9160   -5.0830 O         1 <0>         0.0001
  49580 WAT       -30.1820  -73.9160   -4.8330 O         1 <0>         0.0003
  49581 WAT       -30.1820  -73.9160   -4.5830 O         1 <0>         0.0006
  49582 WAT       -30.1820  -73.9160   -4.3330 O         1 <0>         0.0007
  49583 WAT       -30.1820  -73.9160   -4.0830 O         1 <0>         0.0005
  49584 WAT       -30.1820  -73.9160   -3.8330 O         1 <0>         0.0002
  49585 WAT       -30.1820  -73.9160   -3.5830 O         1 <0>         0.0000
  49586 WAT       -30.1820  -73.9160   -3.3330 O         1 <0>         0.0000
  49587 WAT       -30.1820  -73.9160   -3.0830 O         1 <0>         0.0000
  49588 WAT       -30.1820  -73.9160   -2.8330 O         1 <0>         0.0000
  49589 WAT       -30.1820  -73.9160   -2.5830 O         1 <0>         0.0000
  49590 WAT       -30.1820  -73.9160   -2.3330 O         1 <0>         0.0000
  49591 WAT       -30.1820  -73.9160   -2.0830 O         1 <0>         0.0000
  49592 WAT       -30.1820  -73.9160   -1.8330 O         1 <0>         0.0000
  49593 WAT       -30.1820  -73.9160   -1.5830 O         1 <0>         0.0000
  49594 WAT       -30.1820  -73.9160   -1.3330 O         1 <0>         0.0000
  49595 WAT       -30.1820  -73.9160   -1.0830 O         1 <0>         0.0000
  49596 WAT       -30.1820  -73.9160   -0.8330 O         1 <0>         0.0000
  49597 WAT       -30.1820  -73.9160   -0.5830 O         1 <0>         0.0000
  49598 WAT       -30.1820  -73.9160   -0.3330 O         1 <0>         0.0000
  49599 WAT       -30.1820  -73.9160   -0.0830 O         1 <0>         0.0000
  49600 WAT       -30.1820  -73.6660   -9.8330 O         1 <0>         0.0000
  49601 WAT       -30.1820  -73.6660   -9.5830 O         1 <0>         0.0000
  49602 WAT       -30.1820  -73.6660   -9.3330 O         1 <0>         0.0000
  49603 WAT       -30.1820  -73.6660   -9.0830 O         1 <0>         0.0000
  49604 WAT       -30.1820  -73.6660   -8.8330 O         1 <0>         0.0000
  49605 WAT       -30.1820  -73.6660   -8.5830 O         1 <0>         0.0000
  49606 WAT       -30.1820  -73.6660   -8.3330 O         1 <0>         0.0000
  49607 WAT       -30.1820  -73.6660   -8.0830 O         1 <0>         0.0000
  49608 WAT       -30.1820  -73.6660   -7.8330 O         1 <0>         0.0000
  49609 WAT       -30.1820  -73.6660   -7.5830 O         1 <0>         0.0000
  49610 WAT       -30.1820  -73.6660   -7.3330 O         1 <0>         0.0000
  49611 WAT       -30.1820  -73.6660   -7.0830 O         1 <0>         0.0000
  49612 WAT       -30.1820  -73.6660   -6.8330 O         1 <0>         0.0000
  49613 WAT       -30.1820  -73.6660   -6.5830 O         1 <0>         0.0000
  49614 WAT       -30.1820  -73.6660   -6.3330 O         1 <0>         0.0000
  49615 WAT       -30.1820  -73.6660   -6.0830 O         1 <0>         0.0000
  49616 WAT       -30.1820  -73.6660   -5.8330 O         1 <0>         0.0000
  49617 WAT       -30.1820  -73.6660   -5.5830 O         1 <0>         0.0000
  49618 WAT       -30.1820  -73.6660   -5.3330 O         1 <0>         0.0002
  49619 WAT       -30.1820  -73.6660   -5.0830 O         1 <0>         0.0008
  49620 WAT       -30.1820  -73.6660   -4.8330 O         1 <0>         0.0023
  49621 WAT       -30.1820  -73.6660   -4.5830 O         1 <0>         0.0039
  49622 WAT       -30.1820  -73.6660   -4.3330 O         1 <0>         0.0043
  49623 WAT       -30.1820  -73.6660   -4.0830 O         1 <0>         0.0030
  49624 WAT       -30.1820  -73.6660   -3.8330 O         1 <0>         0.0013
  49625 WAT       -30.1820  -73.6660   -3.5830 O         1 <0>         0.0003
  49626 WAT       -30.1820  -73.6660   -3.3330 O         1 <0>         0.0000
  49627 WAT       -30.1820  -73.6660   -3.0830 O         1 <0>         0.0000
  49628 WAT       -30.1820  -73.6660   -2.8330 O         1 <0>         0.0000
  49629 WAT       -30.1820  -73.6660   -2.5830 O         1 <0>         0.0000
  49630 WAT       -30.1820  -73.6660   -2.3330 O         1 <0>         0.0000
  49631 WAT       -30.1820  -73.6660   -2.0830 O         1 <0>         0.0000
  49632 WAT       -30.1820  -73.6660   -1.8330 O         1 <0>         0.0000
  49633 WAT       -30.1820  -73.6660   -1.5830 O         1 <0>         0.0000
  49634 WAT       -30.1820  -73.6660   -1.3330 O         1 <0>         0.0000
  49635 WAT       -30.1820  -73.6660   -1.0830 O         1 <0>         0.0000
  49636 WAT       -30.1820  -73.6660   -0.8330 O         1 <0>         0.0000
  49637 WAT       -30.1820  -73.6660   -0.5830 O         1 <0>         0.0000
  49638 WAT       -30.1820  -73.6660   -0.3330 O         1 <0>         0.0000
  49639 WAT       -30.1820  -73.6660   -0.0830 O         1 <0>         0.0000
  49640 WAT       -30.1820  -73.4160   -9.8330 O         1 <0>         0.0000
  49641 WAT       -30.1820  -73.4160   -9.5830 O         1 <0>         0.0000
  49642 WAT       -30.1820  -73.4160   -9.3330 O         1 <0>         0.0000
  49643 WAT       -30.1820  -73.4160   -9.0830 O         1 <0>         0.0000
  49644 WAT       -30.1820  -73.4160   -8.8330 O         1 <0>         0.0000
  49645 WAT       -30.1820  -73.4160   -8.5830 O         1 <0>         0.0000
  49646 WAT       -30.1820  -73.4160   -8.3330 O         1 <0>         0.0000
  49647 WAT       -30.1820  -73.4160   -8.0830 O         1 <0>         0.0000
  49648 WAT       -30.1820  -73.4160   -7.8330 O         1 <0>         0.0000
  49649 WAT       -30.1820  -73.4160   -7.5830 O         1 <0>         0.0000
  49650 WAT       -30.1820  -73.4160   -7.3330 O         1 <0>         0.0000
  49651 WAT       -30.1820  -73.4160   -7.0830 O         1 <0>         0.0000
  49652 WAT       -30.1820  -73.4160   -6.8330 O         1 <0>         0.0000
  49653 WAT       -30.1820  -73.4160   -6.5830 O         1 <0>         0.0000
  49654 WAT       -30.1820  -73.4160   -6.3330 O         1 <0>         0.0000
  49655 WAT       -30.1820  -73.4160   -6.0830 O         1 <0>         0.0000
  49656 WAT       -30.1820  -73.4160   -5.8330 O         1 <0>         0.0000
  49657 WAT       -30.1820  -73.4160   -5.5830 O         1 <0>         0.0003
  49658 WAT       -30.1820  -73.4160   -5.3330 O         1 <0>         0.0015
  49659 WAT       -30.1820  -73.4160   -5.0830 O         1 <0>         0.0049
  49660 WAT       -30.1820  -73.4160   -4.8330 O         1 <0>         0.0105
  49661 WAT       -30.1820  -73.4160   -4.5830 O         1 <0>         0.0155
  49662 WAT       -30.1820  -73.4160   -4.3330 O         1 <0>         0.0159
  49663 WAT       -30.1820  -73.4160   -4.0830 O         1 <0>         0.0111
  49664 WAT       -30.1820  -73.4160   -3.8330 O         1 <0>         0.0051
  49665 WAT       -30.1820  -73.4160   -3.5830 O         1 <0>         0.0014
  49666 WAT       -30.1820  -73.4160   -3.3330 O         1 <0>         0.0002
  49667 WAT       -30.1820  -73.4160   -3.0830 O         1 <0>         0.0000
  49668 WAT       -30.1820  -73.4160   -2.8330 O         1 <0>         0.0000
  49669 WAT       -30.1820  -73.4160   -2.5830 O         1 <0>         0.0000
  49670 WAT       -30.1820  -73.4160   -2.3330 O         1 <0>         0.0000
  49671 WAT       -30.1820  -73.4160   -2.0830 O         1 <0>         0.0000
  49672 WAT       -30.1820  -73.4160   -1.8330 O         1 <0>         0.0000
  49673 WAT       -30.1820  -73.4160   -1.5830 O         1 <0>         0.0000
  49674 WAT       -30.1820  -73.4160   -1.3330 O         1 <0>         0.0000
  49675 WAT       -30.1820  -73.4160   -1.0830 O         1 <0>         0.0000
  49676 WAT       -30.1820  -73.4160   -0.8330 O         1 <0>         0.0000
  49677 WAT       -30.1820  -73.4160   -0.5830 O         1 <0>         0.0000
  49678 WAT       -30.1820  -73.4160   -0.3330 O         1 <0>         0.0000
  49679 WAT       -30.1820  -73.4160   -0.0830 O         1 <0>         0.0000
  49680 WAT       -30.1820  -73.1660   -9.8330 O         1 <0>         0.0000
  49681 WAT       -30.1820  -73.1660   -9.5830 O         1 <0>         0.0000
  49682 WAT       -30.1820  -73.1660   -9.3330 O         1 <0>         0.0000
  49683 WAT       -30.1820  -73.1660   -9.0830 O         1 <0>         0.0000
  49684 WAT       -30.1820  -73.1660   -8.8330 O         1 <0>         0.0000
  49685 WAT       -30.1820  -73.1660   -8.5830 O         1 <0>         0.0000
  49686 WAT       -30.1820  -73.1660   -8.3330 O         1 <0>         0.0000
  49687 WAT       -30.1820  -73.1660   -8.0830 O         1 <0>         0.0001
  49688 WAT       -30.1820  -73.1660   -7.8330 O         1 <0>         0.0002
  49689 WAT       -30.1820  -73.1660   -7.5830 O         1 <0>         0.0001
  49690 WAT       -30.1820  -73.1660   -7.3330 O         1 <0>         0.0000
  49691 WAT       -30.1820  -73.1660   -7.0830 O         1 <0>         0.0000
  49692 WAT       -30.1820  -73.1660   -6.8330 O         1 <0>         0.0000
  49693 WAT       -30.1820  -73.1660   -6.5830 O         1 <0>         0.0000
  49694 WAT       -30.1820  -73.1660   -6.3330 O         1 <0>         0.0000
  49695 WAT       -30.1820  -73.1660   -6.0830 O         1 <0>         0.0000
  49696 WAT       -30.1820  -73.1660   -5.8330 O         1 <0>         0.0003
  49697 WAT       -30.1820  -73.1660   -5.5830 O         1 <0>         0.0016
  49698 WAT       -30.1820  -73.1660   -5.3330 O         1 <0>         0.0066
  49699 WAT       -30.1820  -73.1660   -5.0830 O         1 <0>         0.0172
  49700 WAT       -30.1820  -73.1660   -4.8330 O         1 <0>         0.0311
  49701 WAT       -30.1820  -73.1660   -4.5830 O         1 <0>         0.0413
  49702 WAT       -30.1820  -73.1660   -4.3330 O         1 <0>         0.0399
  49703 WAT       -30.1820  -73.1660   -4.0830 O         1 <0>         0.0271
  49704 WAT       -30.1820  -73.1660   -3.8330 O         1 <0>         0.0125
  49705 WAT       -30.1820  -73.1660   -3.5830 O         1 <0>         0.0038
  49706 WAT       -30.1820  -73.1660   -3.3330 O         1 <0>         0.0006
  49707 WAT       -30.1820  -73.1660   -3.0830 O         1 <0>         0.0001
  49708 WAT       -30.1820  -73.1660   -2.8330 O         1 <0>         0.0000
  49709 WAT       -30.1820  -73.1660   -2.5830 O         1 <0>         0.0000
  49710 WAT       -30.1820  -73.1660   -2.3330 O         1 <0>         0.0000
  49711 WAT       -30.1820  -73.1660   -2.0830 O         1 <0>         0.0000
  49712 WAT       -30.1820  -73.1660   -1.8330 O         1 <0>         0.0000
  49713 WAT       -30.1820  -73.1660   -1.5830 O         1 <0>         0.0000
  49714 WAT       -30.1820  -73.1660   -1.3330 O         1 <0>         0.0000
  49715 WAT       -30.1820  -73.1660   -1.0830 O         1 <0>         0.0000
  49716 WAT       -30.1820  -73.1660   -0.8330 O         1 <0>         0.0000
  49717 WAT       -30.1820  -73.1660   -0.5830 O         1 <0>         0.0000
  49718 WAT       -30.1820  -73.1660   -0.3330 O         1 <0>         0.0000
  49719 WAT       -30.1820  -73.1660   -0.0830 O         1 <0>         0.0000
  49720 WAT       -30.1820  -72.9160   -9.8330 O         1 <0>         0.0000
  49721 WAT       -30.1820  -72.9160   -9.5830 O         1 <0>         0.0000
  49722 WAT       -30.1820  -72.9160   -9.3330 O         1 <0>         0.0000
  49723 WAT       -30.1820  -72.9160   -9.0830 O         1 <0>         0.0000
  49724 WAT       -30.1820  -72.9160   -8.8330 O         1 <0>         0.0000
  49725 WAT       -30.1820  -72.9160   -8.5830 O         1 <0>         0.0001
  49726 WAT       -30.1820  -72.9160   -8.3330 O         1 <0>         0.0011
  49727 WAT       -30.1820  -72.9160   -8.0830 O         1 <0>         0.0029
  49728 WAT       -30.1820  -72.9160   -7.8330 O         1 <0>         0.0039
  49729 WAT       -30.1820  -72.9160   -7.5830 O         1 <0>         0.0029
  49730 WAT       -30.1820  -72.9160   -7.3330 O         1 <0>         0.0012
  49731 WAT       -30.1820  -72.9160   -7.0830 O         1 <0>         0.0002
  49732 WAT       -30.1820  -72.9160   -6.8330 O         1 <0>         0.0000
  49733 WAT       -30.1820  -72.9160   -6.5830 O         1 <0>         0.0000
  49734 WAT       -30.1820  -72.9160   -6.3330 O         1 <0>         0.0000
  49735 WAT       -30.1820  -72.9160   -6.0830 O         1 <0>         0.0001
  49736 WAT       -30.1820  -72.9160   -5.8330 O         1 <0>         0.0011
  49737 WAT       -30.1820  -72.9160   -5.5830 O         1 <0>         0.0053
  49738 WAT       -30.1820  -72.9160   -5.3330 O         1 <0>         0.0171
  49739 WAT       -30.1820  -72.9160   -5.0830 O         1 <0>         0.0382
  49740 WAT       -30.1820  -72.9160   -4.8330 O         1 <0>         0.0623
  49741 WAT       -30.1820  -72.9160   -4.5830 O         1 <0>         0.0761
  49742 WAT       -30.1820  -72.9160   -4.3330 O         1 <0>         0.0692
  49743 WAT       -30.1820  -72.9160   -4.0830 O         1 <0>         0.0453
  49744 WAT       -30.1820  -72.9160   -3.8330 O         1 <0>         0.0208
  49745 WAT       -30.1820  -72.9160   -3.5830 O         1 <0>         0.0065
  49746 WAT       -30.1820  -72.9160   -3.3330 O         1 <0>         0.0012
  49747 WAT       -30.1820  -72.9160   -3.0830 O         1 <0>         0.0001
  49748 WAT       -30.1820  -72.9160   -2.8330 O         1 <0>         0.0000
  49749 WAT       -30.1820  -72.9160   -2.5830 O         1 <0>         0.0000
  49750 WAT       -30.1820  -72.9160   -2.3330 O         1 <0>         0.0000
  49751 WAT       -30.1820  -72.9160   -2.0830 O         1 <0>         0.0000
  49752 WAT       -30.1820  -72.9160   -1.8330 O         1 <0>         0.0000
  49753 WAT       -30.1820  -72.9160   -1.5830 O         1 <0>         0.0000
  49754 WAT       -30.1820  -72.9160   -1.3330 O         1 <0>         0.0000
  49755 WAT       -30.1820  -72.9160   -1.0830 O         1 <0>         0.0000
  49756 WAT       -30.1820  -72.9160   -0.8330 O         1 <0>         0.0000
  49757 WAT       -30.1820  -72.9160   -0.5830 O         1 <0>         0.0000
  49758 WAT       -30.1820  -72.9160   -0.3330 O         1 <0>         0.0000
  49759 WAT       -30.1820  -72.9160   -0.0830 O         1 <0>         0.0000
  49760 WAT       -30.1820  -72.6660   -9.8330 O         1 <0>         0.0000
  49761 WAT       -30.1820  -72.6660   -9.5830 O         1 <0>         0.0000
  49762 WAT       -30.1820  -72.6660   -9.3330 O         1 <0>         0.0000
  49763 WAT       -30.1820  -72.6660   -9.0830 O         1 <0>         0.0000
  49764 WAT       -30.1820  -72.6660   -8.8330 O         1 <0>         0.0001
  49765 WAT       -30.1820  -72.6660   -8.5830 O         1 <0>         0.0026
  49766 WAT       -30.1820  -72.6660   -8.3330 O         1 <0>         0.0114
  49767 WAT       -30.1820  -72.6660   -8.0830 O         1 <0>         0.0235
  49768 WAT       -30.1820  -72.6660   -7.8330 O         1 <0>         0.0281
  49769 WAT       -30.1820  -72.6660   -7.5830 O         1 <0>         0.0207
  49770 WAT       -30.1820  -72.6660   -7.3330 O         1 <0>         0.0091
  49771 WAT       -30.1820  -72.6660   -7.0830 O         1 <0>         0.0024
  49772 WAT       -30.1820  -72.6660   -6.8330 O         1 <0>         0.0004
  49773 WAT       -30.1820  -72.6660   -6.5830 O         1 <0>         0.0001
  49774 WAT       -30.1820  -72.6660   -6.3330 O         1 <0>         0.0001
  49775 WAT       -30.1820  -72.6660   -6.0830 O         1 <0>         0.0004
  49776 WAT       -30.1820  -72.6660   -5.8330 O         1 <0>         0.0024
  49777 WAT       -30.1820  -72.6660   -5.5830 O         1 <0>         0.0102
  49778 WAT       -30.1820  -72.6660   -5.3330 O         1 <0>         0.0292
  49779 WAT       -30.1820  -72.6660   -5.0830 O         1 <0>         0.0593
  49780 WAT       -30.1820  -72.6660   -4.8330 O         1 <0>         0.0885
  49781 WAT       -30.1820  -72.6660   -4.5830 O         1 <0>         0.0999
  49782 WAT       -30.1820  -72.6660   -4.3330 O         1 <0>         0.0848
  49783 WAT       -30.1820  -72.6660   -4.0830 O         1 <0>         0.0530
  49784 WAT       -30.1820  -72.6660   -3.8330 O         1 <0>         0.0237
  49785 WAT       -30.1820  -72.6660   -3.5830 O         1 <0>         0.0074
  49786 WAT       -30.1820  -72.6660   -3.3330 O         1 <0>         0.0014
  49787 WAT       -30.1820  -72.6660   -3.0830 O         1 <0>         0.0001
  49788 WAT       -30.1820  -72.6660   -2.8330 O         1 <0>         0.0000
  49789 WAT       -30.1820  -72.6660   -2.5830 O         1 <0>         0.0000
  49790 WAT       -30.1820  -72.6660   -2.3330 O         1 <0>         0.0000
  49791 WAT       -30.1820  -72.6660   -2.0830 O         1 <0>         0.0000
  49792 WAT       -30.1820  -72.6660   -1.8330 O         1 <0>         0.0000
  49793 WAT       -30.1820  -72.6660   -1.5830 O         1 <0>         0.0000
  49794 WAT       -30.1820  -72.6660   -1.3330 O         1 <0>         0.0000
  49795 WAT       -30.1820  -72.6660   -1.0830 O         1 <0>         0.0000
  49796 WAT       -30.1820  -72.6660   -0.8330 O         1 <0>         0.0000
  49797 WAT       -30.1820  -72.6660   -0.5830 O         1 <0>         0.0000
  49798 WAT       -30.1820  -72.6660   -0.3330 O         1 <0>         0.0000
  49799 WAT       -30.1820  -72.6660   -0.0830 O         1 <0>         0.0000
  49800 WAT       -30.1820  -72.4160   -9.8330 O         1 <0>         0.0000
  49801 WAT       -30.1820  -72.4160   -9.5830 O         1 <0>         0.0000
  49802 WAT       -30.1820  -72.4160   -9.3330 O         1 <0>         0.0000
  49803 WAT       -30.1820  -72.4160   -9.0830 O         1 <0>         0.0000
  49804 WAT       -30.1820  -72.4160   -8.8330 O         1 <0>         0.0019
  49805 WAT       -30.1820  -72.4160   -8.5830 O         1 <0>         0.0161
  49806 WAT       -30.1820  -72.4160   -8.3330 O         1 <0>         0.0511
  49807 WAT       -30.1820  -72.4160   -8.0830 O         1 <0>         0.0931
  49808 WAT       -30.1820  -72.4160   -7.8330 O         1 <0>         0.1060
  49809 WAT       -30.1820  -72.4160   -7.5830 O         1 <0>         0.0771
  49810 WAT       -30.1820  -72.4160   -7.3330 O         1 <0>         0.0358
  49811 WAT       -30.1820  -72.4160   -7.0830 O         1 <0>         0.0103
  49812 WAT       -30.1820  -72.4160   -6.8330 O         1 <0>         0.0019
  49813 WAT       -30.1820  -72.4160   -6.5830 O         1 <0>         0.0004
  49814 WAT       -30.1820  -72.4160   -6.3330 O         1 <0>         0.0002
  49815 WAT       -30.1820  -72.4160   -6.0830 O         1 <0>         0.0007
  49816 WAT       -30.1820  -72.4160   -5.8330 O         1 <0>         0.0034
  49817 WAT       -30.1820  -72.4160   -5.5830 O         1 <0>         0.0133
  49818 WAT       -30.1820  -72.4160   -5.3330 O         1 <0>         0.0353
  49819 WAT       -30.1820  -72.4160   -5.0830 O         1 <0>         0.0665
  49820 WAT       -30.1820  -72.4160   -4.8330 O         1 <0>         0.0922
  49821 WAT       -30.1820  -72.4160   -4.5830 O         1 <0>         0.0959
  49822 WAT       -30.1820  -72.4160   -4.3330 O         1 <0>         0.0754
  49823 WAT       -30.1820  -72.4160   -4.0830 O         1 <0>         0.0444
  49824 WAT       -30.1820  -72.4160   -3.8330 O         1 <0>         0.0191
  49825 WAT       -30.1820  -72.4160   -3.5830 O         1 <0>         0.0059
  49826 WAT       -30.1820  -72.4160   -3.3330 O         1 <0>         0.0012
  49827 WAT       -30.1820  -72.4160   -3.0830 O         1 <0>         0.0001
  49828 WAT       -30.1820  -72.4160   -2.8330 O         1 <0>         0.0000
  49829 WAT       -30.1820  -72.4160   -2.5830 O         1 <0>         0.0000
  49830 WAT       -30.1820  -72.4160   -2.3330 O         1 <0>         0.0000
  49831 WAT       -30.1820  -72.4160   -2.0830 O         1 <0>         0.0000
  49832 WAT       -30.1820  -72.4160   -1.8330 O         1 <0>         0.0000
  49833 WAT       -30.1820  -72.4160   -1.5830 O         1 <0>         0.0000
  49834 WAT       -30.1820  -72.4160   -1.3330 O         1 <0>         0.0000
  49835 WAT       -30.1820  -72.4160   -1.0830 O         1 <0>         0.0000
  49836 WAT       -30.1820  -72.4160   -0.8330 O         1 <0>         0.0000
  49837 WAT       -30.1820  -72.4160   -0.5830 O         1 <0>         0.0000
  49838 WAT       -30.1820  -72.4160   -0.3330 O         1 <0>         0.0000
  49839 WAT       -30.1820  -72.4160   -0.0830 O         1 <0>         0.0000
  49840 WAT       -30.1820  -72.1660   -9.8330 O         1 <0>         0.0000
  49841 WAT       -30.1820  -72.1660   -9.5830 O         1 <0>         0.0000
  49842 WAT       -30.1820  -72.1660   -9.3330 O         1 <0>         0.0000
  49843 WAT       -30.1820  -72.1660   -9.0830 O         1 <0>         0.0004
  49844 WAT       -30.1820  -72.1660   -8.8330 O         1 <0>         0.0088
  49845 WAT       -30.1820  -72.1660   -8.5830 O         1 <0>         0.0476
  49846 WAT       -30.1820  -72.1660   -8.3330 O         1 <0>         0.1325
  49847 WAT       -30.1820  -72.1660   -8.0830 O         1 <0>         0.2288
  49848 WAT       -30.1820  -72.1660   -7.8330 O         1 <0>         0.2516
  49849 WAT       -30.1820  -72.1660   -7.5830 O         1 <0>         0.1787
  49850 WAT       -30.1820  -72.1660   -7.3330 O         1 <0>         0.0831
  49851 WAT       -30.1820  -72.1660   -7.0830 O         1 <0>         0.0251
  49852 WAT       -30.1820  -72.1660   -6.8330 O         1 <0>         0.0050
  49853 WAT       -30.1820  -72.1660   -6.5830 O         1 <0>         0.0010
  49854 WAT       -30.1820  -72.1660   -6.3330 O         1 <0>         0.0004
  49855 WAT       -30.1820  -72.1660   -6.0830 O         1 <0>         0.0008
  49856 WAT       -30.1820  -72.1660   -5.8330 O         1 <0>         0.0036
  49857 WAT       -30.1820  -72.1660   -5.5830 O         1 <0>         0.0126
  49858 WAT       -30.1820  -72.1660   -5.3330 O         1 <0>         0.0314
  49859 WAT       -30.1820  -72.1660   -5.0830 O         1 <0>         0.0557
  49860 WAT       -30.1820  -72.1660   -4.8330 O         1 <0>         0.0720
  49861 WAT       -30.1820  -72.1660   -4.5830 O         1 <0>         0.0691
  49862 WAT       -30.1820  -72.1660   -4.3330 O         1 <0>         0.0498
  49863 WAT       -30.1820  -72.1660   -4.0830 O         1 <0>         0.0272
  49864 WAT       -30.1820  -72.1660   -3.8330 O         1 <0>         0.0112
  49865 WAT       -30.1820  -72.1660   -3.5830 O         1 <0>         0.0034
  49866 WAT       -30.1820  -72.1660   -3.3330 O         1 <0>         0.0008
  49867 WAT       -30.1820  -72.1660   -3.0830 O         1 <0>         0.0001
  49868 WAT       -30.1820  -72.1660   -2.8330 O         1 <0>         0.0000
  49869 WAT       -30.1820  -72.1660   -2.5830 O         1 <0>         0.0000
  49870 WAT       -30.1820  -72.1660   -2.3330 O         1 <0>         0.0000
  49871 WAT       -30.1820  -72.1660   -2.0830 O         1 <0>         0.0000
  49872 WAT       -30.1820  -72.1660   -1.8330 O         1 <0>         0.0000
  49873 WAT       -30.1820  -72.1660   -1.5830 O         1 <0>         0.0000
  49874 WAT       -30.1820  -72.1660   -1.3330 O         1 <0>         0.0000
  49875 WAT       -30.1820  -72.1660   -1.0830 O         1 <0>         0.0000
  49876 WAT       -30.1820  -72.1660   -0.8330 O         1 <0>         0.0000
  49877 WAT       -30.1820  -72.1660   -0.5830 O         1 <0>         0.0000
  49878 WAT       -30.1820  -72.1660   -0.3330 O         1 <0>         0.0000
  49879 WAT       -30.1820  -72.1660   -0.0830 O         1 <0>         0.0000
  49880 WAT       -30.1820  -71.9160   -9.8330 O         1 <0>         0.0000
  49881 WAT       -30.1820  -71.9160   -9.5830 O         1 <0>         0.0000
  49882 WAT       -30.1820  -71.9160   -9.3330 O         1 <0>         0.0000
  49883 WAT       -30.1820  -71.9160   -9.0830 O         1 <0>         0.0015
  49884 WAT       -30.1820  -71.9160   -8.8330 O         1 <0>         0.0191
  49885 WAT       -30.1820  -71.9160   -8.5830 O         1 <0>         0.0861
  49886 WAT       -30.1820  -71.9160   -8.3330 O         1 <0>         0.2250
  49887 WAT       -30.1820  -71.9160   -8.0830 O         1 <0>         0.3721
  49888 WAT       -30.1820  -71.9160   -7.8330 O         1 <0>         0.3952
  49889 WAT       -30.1820  -71.9160   -7.5830 O         1 <0>         0.2732
  49890 WAT       -30.1820  -71.9160   -7.3330 O         1 <0>         0.1253
  49891 WAT       -30.1820  -71.9160   -7.0830 O         1 <0>         0.0383
  49892 WAT       -30.1820  -71.9160   -6.8330 O         1 <0>         0.0079
  49893 WAT       -30.1820  -71.9160   -6.5830 O         1 <0>         0.0017
  49894 WAT       -30.1820  -71.9160   -6.3330 O         1 <0>         0.0006
  49895 WAT       -30.1820  -71.9160   -6.0830 O         1 <0>         0.0008
  49896 WAT       -30.1820  -71.9160   -5.8330 O         1 <0>         0.0028
  49897 WAT       -30.1820  -71.9160   -5.5830 O         1 <0>         0.0092
  49898 WAT       -30.1820  -71.9160   -5.3330 O         1 <0>         0.0217
  49899 WAT       -30.1820  -71.9160   -5.0830 O         1 <0>         0.0360
  49900 WAT       -30.1820  -71.9160   -4.8330 O         1 <0>         0.0434
  49901 WAT       -30.1820  -71.9160   -4.5830 O         1 <0>         0.0381
  49902 WAT       -30.1820  -71.9160   -4.3330 O         1 <0>         0.0250
  49903 WAT       -30.1820  -71.9160   -4.0830 O         1 <0>         0.0125
  49904 WAT       -30.1820  -71.9160   -3.8330 O         1 <0>         0.0049
  49905 WAT       -30.1820  -71.9160   -3.5830 O         1 <0>         0.0017
  49906 WAT       -30.1820  -71.9160   -3.3330 O         1 <0>         0.0005
  49907 WAT       -30.1820  -71.9160   -3.0830 O         1 <0>         0.0002
  49908 WAT       -30.1820  -71.9160   -2.8330 O         1 <0>         0.0001
  49909 WAT       -30.1820  -71.9160   -2.5830 O         1 <0>         0.0000
  49910 WAT       -30.1820  -71.9160   -2.3330 O         1 <0>         0.0000
  49911 WAT       -30.1820  -71.9160   -2.0830 O         1 <0>         0.0000
  49912 WAT       -30.1820  -71.9160   -1.8330 O         1 <0>         0.0000
  49913 WAT       -30.1820  -71.9160   -1.5830 O         1 <0>         0.0000
  49914 WAT       -30.1820  -71.9160   -1.3330 O         1 <0>         0.0000
  49915 WAT       -30.1820  -71.9160   -1.0830 O         1 <0>         0.0000
  49916 WAT       -30.1820  -71.9160   -0.8330 O         1 <0>         0.0000
  49917 WAT       -30.1820  -71.9160   -0.5830 O         1 <0>         0.0000
  49918 WAT       -30.1820  -71.9160   -0.3330 O         1 <0>         0.0000
  49919 WAT       -30.1820  -71.9160   -0.0830 O         1 <0>         0.0000
  49920 WAT       -30.1820  -71.6660   -9.8330 O         1 <0>         0.0000
  49921 WAT       -30.1820  -71.6660   -9.5830 O         1 <0>         0.0000
  49922 WAT       -30.1820  -71.6660   -9.3330 O         1 <0>         0.0001
  49923 WAT       -30.1820  -71.6660   -9.0830 O         1 <0>         0.0027
  49924 WAT       -30.1820  -71.6660   -8.8330 O         1 <0>         0.0253
  49925 WAT       -30.1820  -71.6660   -8.5830 O         1 <0>         0.1036
  49926 WAT       -30.1820  -71.6660   -8.3330 O         1 <0>         0.2564
  49927 WAT       -30.1820  -71.6660   -8.0830 O         1 <0>         0.4057
  49928 WAT       -30.1820  -71.6660   -7.8330 O         1 <0>         0.4157
  49929 WAT       -30.1820  -71.6660   -7.5830 O         1 <0>         0.2797
  49930 WAT       -30.1820  -71.6660   -7.3330 O         1 <0>         0.1262
  49931 WAT       -30.1820  -71.6660   -7.0830 O         1 <0>         0.0383
  49932 WAT       -30.1820  -71.6660   -6.8330 O         1 <0>         0.0081
  49933 WAT       -30.1820  -71.6660   -6.5830 O         1 <0>         0.0019
  49934 WAT       -30.1820  -71.6660   -6.3330 O         1 <0>         0.0007
  49935 WAT       -30.1820  -71.6660   -6.0830 O         1 <0>         0.0007
  49936 WAT       -30.1820  -71.6660   -5.8330 O         1 <0>         0.0019
  49937 WAT       -30.1820  -71.6660   -5.5830 O         1 <0>         0.0057
  49938 WAT       -30.1820  -71.6660   -5.3330 O         1 <0>         0.0125
  49939 WAT       -30.1820  -71.6660   -5.0830 O         1 <0>         0.0194
  49940 WAT       -30.1820  -71.6660   -4.8330 O         1 <0>         0.0213
  49941 WAT       -30.1820  -71.6660   -4.5830 O         1 <0>         0.0168
  49942 WAT       -30.1820  -71.6660   -4.3330 O         1 <0>         0.0098
  49943 WAT       -30.1820  -71.6660   -4.0830 O         1 <0>         0.0044
  49944 WAT       -30.1820  -71.6660   -3.8330 O         1 <0>         0.0018
  49945 WAT       -30.1820  -71.6660   -3.5830 O         1 <0>         0.0009
  49946 WAT       -30.1820  -71.6660   -3.3330 O         1 <0>         0.0004
  49947 WAT       -30.1820  -71.6660   -3.0830 O         1 <0>         0.0002
  49948 WAT       -30.1820  -71.6660   -2.8330 O         1 <0>         0.0001
  49949 WAT       -30.1820  -71.6660   -2.5830 O         1 <0>         0.0001
  49950 WAT       -30.1820  -71.6660   -2.3330 O         1 <0>         0.0000
  49951 WAT       -30.1820  -71.6660   -2.0830 O         1 <0>         0.0000
  49952 WAT       -30.1820  -71.6660   -1.8330 O         1 <0>         0.0000
  49953 WAT       -30.1820  -71.6660   -1.5830 O         1 <0>         0.0000
  49954 WAT       -30.1820  -71.6660   -1.3330 O         1 <0>         0.0000
  49955 WAT       -30.1820  -71.6660   -1.0830 O         1 <0>         0.0000
  49956 WAT       -30.1820  -71.6660   -0.8330 O         1 <0>         0.0000
  49957 WAT       -30.1820  -71.6660   -0.5830 O         1 <0>         0.0000
  49958 WAT       -30.1820  -71.6660   -0.3330 O         1 <0>         0.0000
  49959 WAT       -30.1820  -71.6660   -0.0830 O         1 <0>         0.0000
  49960 WAT       -30.1820  -71.4160   -9.8330 O         1 <0>         0.0000
  49961 WAT       -30.1820  -71.4160   -9.5830 O         1 <0>         0.0000
  49962 WAT       -30.1820  -71.4160   -9.3330 O         1 <0>         0.0001
  49963 WAT       -30.1820  -71.4160   -9.0830 O         1 <0>         0.0027
  49964 WAT       -30.1820  -71.4160   -8.8330 O         1 <0>         0.0219
  49965 WAT       -30.1820  -71.4160   -8.5830 O         1 <0>         0.0847
  49966 WAT       -30.1820  -71.4160   -8.3330 O         1 <0>         0.1988
  49967 WAT       -30.1820  -71.4160   -8.0830 O         1 <0>         0.3003
  49968 WAT       -30.1820  -71.4160   -7.8330 O         1 <0>         0.2962
  49969 WAT       -30.1820  -71.4160   -7.5830 O         1 <0>         0.1940
  49970 WAT       -30.1820  -71.4160   -7.3330 O         1 <0>         0.0860
  49971 WAT       -30.1820  -71.4160   -7.0830 O         1 <0>         0.0254
  49972 WAT       -30.1820  -71.4160   -6.8330 O         1 <0>         0.0056
  49973 WAT       -30.1820  -71.4160   -6.5830 O         1 <0>         0.0015
  49974 WAT       -30.1820  -71.4160   -6.3330 O         1 <0>         0.0006
  49975 WAT       -30.1820  -71.4160   -6.0830 O         1 <0>         0.0005
  49976 WAT       -30.1820  -71.4160   -5.8330 O         1 <0>         0.0013
  49977 WAT       -30.1820  -71.4160   -5.5830 O         1 <0>         0.0034
  49978 WAT       -30.1820  -71.4160   -5.3330 O         1 <0>         0.0069
  49979 WAT       -30.1820  -71.4160   -5.0830 O         1 <0>         0.0098
  49980 WAT       -30.1820  -71.4160   -4.8330 O         1 <0>         0.0095
  49981 WAT       -30.1820  -71.4160   -4.5830 O         1 <0>         0.0065
  49982 WAT       -30.1820  -71.4160   -4.3330 O         1 <0>         0.0033
  49983 WAT       -30.1820  -71.4160   -4.0830 O         1 <0>         0.0014
  49984 WAT       -30.1820  -71.4160   -3.8330 O         1 <0>         0.0007
  49985 WAT       -30.1820  -71.4160   -3.5830 O         1 <0>         0.0005
  49986 WAT       -30.1820  -71.4160   -3.3330 O         1 <0>         0.0004
  49987 WAT       -30.1820  -71.4160   -3.0830 O         1 <0>         0.0003
  49988 WAT       -30.1820  -71.4160   -2.8330 O         1 <0>         0.0002
  49989 WAT       -30.1820  -71.4160   -2.5830 O         1 <0>         0.0001
  49990 WAT       -30.1820  -71.4160   -2.3330 O         1 <0>         0.0000
  49991 WAT       -30.1820  -71.4160   -2.0830 O         1 <0>         0.0000
  49992 WAT       -30.1820  -71.4160   -1.8330 O         1 <0>         0.0000
  49993 WAT       -30.1820  -71.4160   -1.5830 O         1 <0>         0.0000
  49994 WAT       -30.1820  -71.4160   -1.3330 O         1 <0>         0.0000
  49995 WAT       -30.1820  -71.4160   -1.0830 O         1 <0>         0.0000
  49996 WAT       -30.1820  -71.4160   -0.8330 O         1 <0>         0.0000
  49997 WAT       -30.1820  -71.4160   -0.5830 O         1 <0>         0.0000
  49998 WAT       -30.1820  -71.4160   -0.3330 O         1 <0>         0.0000
  49999 WAT       -30.1820  -71.4160   -0.0830 O         1 <0>         0.0000
  50000 WAT       -30.1820  -71.1660   -9.8330 O         1 <0>         0.0000
  50001 WAT       -30.1820  -71.1660   -9.5830 O         1 <0>         0.0000
  50002 WAT       -30.1820  -71.1660   -9.3330 O         1 <0>         0.0001
  50003 WAT       -30.1820  -71.1660   -9.0830 O         1 <0>         0.0018
  50004 WAT       -30.1820  -71.1660   -8.8330 O         1 <0>         0.0127
  50005 WAT       -30.1820  -71.1660   -8.5830 O         1 <0>         0.0474
  50006 WAT       -30.1820  -71.1660   -8.3330 O         1 <0>         0.1061
  50007 WAT       -30.1820  -71.1660   -8.0830 O         1 <0>         0.1528
  50008 WAT       -30.1820  -71.1660   -7.8330 O         1 <0>         0.1449
  50009 WAT       -30.1820  -71.1660   -7.5830 O         1 <0>         0.0922
  50010 WAT       -30.1820  -71.1660   -7.3330 O         1 <0>         0.0393
  50011 WAT       -30.1820  -71.1660   -7.0830 O         1 <0>         0.0113
  50012 WAT       -30.1820  -71.1660   -6.8330 O         1 <0>         0.0027
  50013 WAT       -30.1820  -71.1660   -6.5830 O         1 <0>         0.0008
  50014 WAT       -30.1820  -71.1660   -6.3330 O         1 <0>         0.0003
  50015 WAT       -30.1820  -71.1660   -6.0830 O         1 <0>         0.0004
  50016 WAT       -30.1820  -71.1660   -5.8330 O         1 <0>         0.0010
  50017 WAT       -30.1820  -71.1660   -5.5830 O         1 <0>         0.0023
  50018 WAT       -30.1820  -71.1660   -5.3330 O         1 <0>         0.0041
  50019 WAT       -30.1820  -71.1660   -5.0830 O         1 <0>         0.0052
  50020 WAT       -30.1820  -71.1660   -4.8330 O         1 <0>         0.0045
  50021 WAT       -30.1820  -71.1660   -4.5830 O         1 <0>         0.0026
  50022 WAT       -30.1820  -71.1660   -4.3330 O         1 <0>         0.0011
  50023 WAT       -30.1820  -71.1660   -4.0830 O         1 <0>         0.0004
  50024 WAT       -30.1820  -71.1660   -3.8330 O         1 <0>         0.0003
  50025 WAT       -30.1820  -71.1660   -3.5830 O         1 <0>         0.0003
  50026 WAT       -30.1820  -71.1660   -3.3330 O         1 <0>         0.0003
  50027 WAT       -30.1820  -71.1660   -3.0830 O         1 <0>         0.0002
  50028 WAT       -30.1820  -71.1660   -2.8330 O         1 <0>         0.0002
  50029 WAT       -30.1820  -71.1660   -2.5830 O         1 <0>         0.0001
  50030 WAT       -30.1820  -71.1660   -2.3330 O         1 <0>         0.0000
  50031 WAT       -30.1820  -71.1660   -2.0830 O         1 <0>         0.0000
  50032 WAT       -30.1820  -71.1660   -1.8330 O         1 <0>         0.0000
  50033 WAT       -30.1820  -71.1660   -1.5830 O         1 <0>         0.0000
  50034 WAT       -30.1820  -71.1660   -1.3330 O         1 <0>         0.0000
  50035 WAT       -30.1820  -71.1660   -1.0830 O         1 <0>         0.0000
  50036 WAT       -30.1820  -71.1660   -0.8330 O         1 <0>         0.0000
  50037 WAT       -30.1820  -71.1660   -0.5830 O         1 <0>         0.0000
  50038 WAT       -30.1820  -71.1660   -0.3330 O         1 <0>         0.0000
  50039 WAT       -30.1820  -71.1660   -0.0830 O         1 <0>         0.0000
  50040 WAT       -30.1820  -70.9160   -9.8330 O         1 <0>         0.0000
  50041 WAT       -30.1820  -70.9160   -9.5830 O         1 <0>         0.0000
  50042 WAT       -30.1820  -70.9160   -9.3330 O         1 <0>         0.0000
  50043 WAT       -30.1820  -70.9160   -9.0830 O         1 <0>         0.0007
  50044 WAT       -30.1820  -70.9160   -8.8330 O         1 <0>         0.0051
  50045 WAT       -30.1820  -70.9160   -8.5830 O         1 <0>         0.0181
  50046 WAT       -30.1820  -70.9160   -8.3330 O         1 <0>         0.0391
  50047 WAT       -30.1820  -70.9160   -8.0830 O         1 <0>         0.0537
  50048 WAT       -30.1820  -70.9160   -7.8330 O         1 <0>         0.0486
  50049 WAT       -30.1820  -70.9160   -7.5830 O         1 <0>         0.0294
  50050 WAT       -30.1820  -70.9160   -7.3330 O         1 <0>         0.0118
  50051 WAT       -30.1820  -70.9160   -7.0830 O         1 <0>         0.0036
  50052 WAT       -30.1820  -70.9160   -6.8330 O         1 <0>         0.0010
  50053 WAT       -30.1820  -70.9160   -6.5830 O         1 <0>         0.0003
  50054 WAT       -30.1820  -70.9160   -6.3330 O         1 <0>         0.0002
  50055 WAT       -30.1820  -70.9160   -6.0830 O         1 <0>         0.0003
  50056 WAT       -30.1820  -70.9160   -5.8330 O         1 <0>         0.0009
  50057 WAT       -30.1820  -70.9160   -5.5830 O         1 <0>         0.0018
  50058 WAT       -30.1820  -70.9160   -5.3330 O         1 <0>         0.0027
  50059 WAT       -30.1820  -70.9160   -5.0830 O         1 <0>         0.0030
  50060 WAT       -30.1820  -70.9160   -4.8330 O         1 <0>         0.0024
  50061 WAT       -30.1820  -70.9160   -4.5830 O         1 <0>         0.0013
  50062 WAT       -30.1820  -70.9160   -4.3330 O         1 <0>         0.0005
  50063 WAT       -30.1820  -70.9160   -4.0830 O         1 <0>         0.0002
  50064 WAT       -30.1820  -70.9160   -3.8330 O         1 <0>         0.0002
  50065 WAT       -30.1820  -70.9160   -3.5830 O         1 <0>         0.0002
  50066 WAT       -30.1820  -70.9160   -3.3330 O         1 <0>         0.0002
  50067 WAT       -30.1820  -70.9160   -3.0830 O         1 <0>         0.0001
  50068 WAT       -30.1820  -70.9160   -2.8330 O         1 <0>         0.0001
  50069 WAT       -30.1820  -70.9160   -2.5830 O         1 <0>         0.0001
  50070 WAT       -30.1820  -70.9160   -2.3330 O         1 <0>         0.0000
  50071 WAT       -30.1820  -70.9160   -2.0830 O         1 <0>         0.0000
  50072 WAT       -30.1820  -70.9160   -1.8330 O         1 <0>         0.0000
  50073 WAT       -30.1820  -70.9160   -1.5830 O         1 <0>         0.0000
  50074 WAT       -30.1820  -70.9160   -1.3330 O         1 <0>         0.0000
  50075 WAT       -30.1820  -70.9160   -1.0830 O         1 <0>         0.0000
  50076 WAT       -30.1820  -70.9160   -0.8330 O         1 <0>         0.0000
  50077 WAT       -30.1820  -70.9160   -0.5830 O         1 <0>         0.0000
  50078 WAT       -30.1820  -70.9160   -0.3330 O         1 <0>         0.0000
  50079 WAT       -30.1820  -70.9160   -0.0830 O         1 <0>         0.0000
  50080 WAT       -30.1820  -70.6660   -9.8330 O         1 <0>         0.0000
  50081 WAT       -30.1820  -70.6660   -9.5830 O         1 <0>         0.0000
  50082 WAT       -30.1820  -70.6660   -9.3330 O         1 <0>         0.0000
  50083 WAT       -30.1820  -70.6660   -9.0830 O         1 <0>         0.0002
  50084 WAT       -30.1820  -70.6660   -8.8330 O         1 <0>         0.0014
  50085 WAT       -30.1820  -70.6660   -8.5830 O         1 <0>         0.0047
  50086 WAT       -30.1820  -70.6660   -8.3330 O         1 <0>         0.0098
  50087 WAT       -30.1820  -70.6660   -8.0830 O         1 <0>         0.0128
  50088 WAT       -30.1820  -70.6660   -7.8330 O         1 <0>         0.0108
  50089 WAT       -30.1820  -70.6660   -7.5830 O         1 <0>         0.0060
  50090 WAT       -30.1820  -70.6660   -7.3330 O         1 <0>         0.0025
  50091 WAT       -30.1820  -70.6660   -7.0830 O         1 <0>         0.0009
  50092 WAT       -30.1820  -70.6660   -6.8330 O         1 <0>         0.0002
  50093 WAT       -30.1820  -70.6660   -6.5830 O         1 <0>         0.0001
  50094 WAT       -30.1820  -70.6660   -6.3330 O         1 <0>         0.0001
  50095 WAT       -30.1820  -70.6660   -6.0830 O         1 <0>         0.0004
  50096 WAT       -30.1820  -70.6660   -5.8330 O         1 <0>         0.0008
  50097 WAT       -30.1820  -70.6660   -5.5830 O         1 <0>         0.0014
  50098 WAT       -30.1820  -70.6660   -5.3330 O         1 <0>         0.0018
  50099 WAT       -30.1820  -70.6660   -5.0830 O         1 <0>         0.0018
  50100 WAT       -30.1820  -70.6660   -4.8330 O         1 <0>         0.0014
  50101 WAT       -30.1820  -70.6660   -4.5830 O         1 <0>         0.0008
  50102 WAT       -30.1820  -70.6660   -4.3330 O         1 <0>         0.0004
  50103 WAT       -30.1820  -70.6660   -4.0830 O         1 <0>         0.0002
  50104 WAT       -30.1820  -70.6660   -3.8330 O         1 <0>         0.0001
  50105 WAT       -30.1820  -70.6660   -3.5830 O         1 <0>         0.0001
  50106 WAT       -30.1820  -70.6660   -3.3330 O         1 <0>         0.0001
  50107 WAT       -30.1820  -70.6660   -3.0830 O         1 <0>         0.0000
  50108 WAT       -30.1820  -70.6660   -2.8330 O         1 <0>         0.0000
  50109 WAT       -30.1820  -70.6660   -2.5830 O         1 <0>         0.0000
  50110 WAT       -30.1820  -70.6660   -2.3330 O         1 <0>         0.0000
  50111 WAT       -30.1820  -70.6660   -2.0830 O         1 <0>         0.0000
  50112 WAT       -30.1820  -70.6660   -1.8330 O         1 <0>         0.0000
  50113 WAT       -30.1820  -70.6660   -1.5830 O         1 <0>         0.0000
  50114 WAT       -30.1820  -70.6660   -1.3330 O         1 <0>         0.0000
  50115 WAT       -30.1820  -70.6660   -1.0830 O         1 <0>         0.0000
  50116 WAT       -30.1820  -70.6660   -0.8330 O         1 <0>         0.0000
  50117 WAT       -30.1820  -70.6660   -0.5830 O         1 <0>         0.0000
  50118 WAT       -30.1820  -70.6660   -0.3330 O         1 <0>         0.0000
  50119 WAT       -30.1820  -70.6660   -0.0830 O         1 <0>         0.0000
  50120 WAT       -30.1820  -70.4160   -9.8330 O         1 <0>         0.0000
  50121 WAT       -30.1820  -70.4160   -9.5830 O         1 <0>         0.0000
  50122 WAT       -30.1820  -70.4160   -9.3330 O         1 <0>         0.0000
  50123 WAT       -30.1820  -70.4160   -9.0830 O         1 <0>         0.0000
  50124 WAT       -30.1820  -70.4160   -8.8330 O         1 <0>         0.0003
  50125 WAT       -30.1820  -70.4160   -8.5830 O         1 <0>         0.0009
  50126 WAT       -30.1820  -70.4160   -8.3330 O         1 <0>         0.0017
  50127 WAT       -30.1820  -70.4160   -8.0830 O         1 <0>         0.0020
  50128 WAT       -30.1820  -70.4160   -7.8330 O         1 <0>         0.0016
  50129 WAT       -30.1820  -70.4160   -7.5830 O         1 <0>         0.0009
  50130 WAT       -30.1820  -70.4160   -7.3330 O         1 <0>         0.0005
  50131 WAT       -30.1820  -70.4160   -7.0830 O         1 <0>         0.0002
  50132 WAT       -30.1820  -70.4160   -6.8330 O         1 <0>         0.0001
  50133 WAT       -30.1820  -70.4160   -6.5830 O         1 <0>         0.0001
  50134 WAT       -30.1820  -70.4160   -6.3330 O         1 <0>         0.0001
  50135 WAT       -30.1820  -70.4160   -6.0830 O         1 <0>         0.0004
  50136 WAT       -30.1820  -70.4160   -5.8330 O         1 <0>         0.0007
  50137 WAT       -30.1820  -70.4160   -5.5830 O         1 <0>         0.0010
  50138 WAT       -30.1820  -70.4160   -5.3330 O         1 <0>         0.0011
  50139 WAT       -30.1820  -70.4160   -5.0830 O         1 <0>         0.0010
  50140 WAT       -30.1820  -70.4160   -4.8330 O         1 <0>         0.0009
  50141 WAT       -30.1820  -70.4160   -4.5830 O         1 <0>         0.0007
  50142 WAT       -30.1820  -70.4160   -4.3330 O         1 <0>         0.0004
  50143 WAT       -30.1820  -70.4160   -4.0830 O         1 <0>         0.0002
  50144 WAT       -30.1820  -70.4160   -3.8330 O         1 <0>         0.0001
  50145 WAT       -30.1820  -70.4160   -3.5830 O         1 <0>         0.0000
  50146 WAT       -30.1820  -70.4160   -3.3330 O         1 <0>         0.0000
  50147 WAT       -30.1820  -70.4160   -3.0830 O         1 <0>         0.0000
  50148 WAT       -30.1820  -70.4160   -2.8330 O         1 <0>         0.0000
  50149 WAT       -30.1820  -70.4160   -2.5830 O         1 <0>         0.0000
  50150 WAT       -30.1820  -70.4160   -2.3330 O         1 <0>         0.0000
  50151 WAT       -30.1820  -70.4160   -2.0830 O         1 <0>         0.0000
  50152 WAT       -30.1820  -70.4160   -1.8330 O         1 <0>         0.0000
  50153 WAT       -30.1820  -70.4160   -1.5830 O         1 <0>         0.0000
  50154 WAT       -30.1820  -70.4160   -1.3330 O         1 <0>         0.0000
  50155 WAT       -30.1820  -70.4160   -1.0830 O         1 <0>         0.0000
  50156 WAT       -30.1820  -70.4160   -0.8330 O         1 <0>         0.0000
  50157 WAT       -30.1820  -70.4160   -0.5830 O         1 <0>         0.0000
  50158 WAT       -30.1820  -70.4160   -0.3330 O         1 <0>         0.0000
  50159 WAT       -30.1820  -70.4160   -0.0830 O         1 <0>         0.0000
  50160 WAT       -30.1820  -70.1660   -9.8330 O         1 <0>         0.0000
  50161 WAT       -30.1820  -70.1660   -9.5830 O         1 <0>         0.0000
  50162 WAT       -30.1820  -70.1660   -9.3330 O         1 <0>         0.0000
  50163 WAT       -30.1820  -70.1660   -9.0830 O         1 <0>         0.0000
  50164 WAT       -30.1820  -70.1660   -8.8330 O         1 <0>         0.0000
  50165 WAT       -30.1820  -70.1660   -8.5830 O         1 <0>         0.0001
  50166 WAT       -30.1820  -70.1660   -8.3330 O         1 <0>         0.0002
  50167 WAT       -30.1820  -70.1660   -8.0830 O         1 <0>         0.0003
  50168 WAT       -30.1820  -70.1660   -7.8330 O         1 <0>         0.0005
  50169 WAT       -30.1820  -70.1660   -7.5830 O         1 <0>         0.0009
  50170 WAT       -30.1820  -70.1660   -7.3330 O         1 <0>         0.0013
  50171 WAT       -30.1820  -70.1660   -7.0830 O         1 <0>         0.0013
  50172 WAT       -30.1820  -70.1660   -6.8330 O         1 <0>         0.0009
  50173 WAT       -30.1820  -70.1660   -6.5830 O         1 <0>         0.0005
  50174 WAT       -30.1820  -70.1660   -6.3330 O         1 <0>         0.0003
  50175 WAT       -30.1820  -70.1660   -6.0830 O         1 <0>         0.0004
  50176 WAT       -30.1820  -70.1660   -5.8330 O         1 <0>         0.0005
  50177 WAT       -30.1820  -70.1660   -5.5830 O         1 <0>         0.0006
  50178 WAT       -30.1820  -70.1660   -5.3330 O         1 <0>         0.0006
  50179 WAT       -30.1820  -70.1660   -5.0830 O         1 <0>         0.0006
  50180 WAT       -30.1820  -70.1660   -4.8330 O         1 <0>         0.0007
  50181 WAT       -30.1820  -70.1660   -4.5830 O         1 <0>         0.0006
  50182 WAT       -30.1820  -70.1660   -4.3330 O         1 <0>         0.0004
  50183 WAT       -30.1820  -70.1660   -4.0830 O         1 <0>         0.0002
  50184 WAT       -30.1820  -70.1660   -3.8330 O         1 <0>         0.0001
  50185 WAT       -30.1820  -70.1660   -3.5830 O         1 <0>         0.0000
  50186 WAT       -30.1820  -70.1660   -3.3330 O         1 <0>         0.0000
  50187 WAT       -30.1820  -70.1660   -3.0830 O         1 <0>         0.0000
  50188 WAT       -30.1820  -70.1660   -2.8330 O         1 <0>         0.0000
  50189 WAT       -30.1820  -70.1660   -2.5830 O         1 <0>         0.0000
  50190 WAT       -30.1820  -70.1660   -2.3330 O         1 <0>         0.0000
  50191 WAT       -30.1820  -70.1660   -2.0830 O         1 <0>         0.0000
  50192 WAT       -30.1820  -70.1660   -1.8330 O         1 <0>         0.0000
  50193 WAT       -30.1820  -70.1660   -1.5830 O         1 <0>         0.0000
  50194 WAT       -30.1820  -70.1660   -1.3330 O         1 <0>         0.0000
  50195 WAT       -30.1820  -70.1660   -1.0830 O         1 <0>         0.0000
  50196 WAT       -30.1820  -70.1660   -0.8330 O         1 <0>         0.0000
  50197 WAT       -30.1820  -70.1660   -0.5830 O         1 <0>         0.0000
  50198 WAT       -30.1820  -70.1660   -0.3330 O         1 <0>         0.0000
  50199 WAT       -30.1820  -70.1660   -0.0830 O         1 <0>         0.0000
  50200 WAT       -30.1820  -69.9160   -9.8330 O         1 <0>         0.0000
  50201 WAT       -30.1820  -69.9160   -9.5830 O         1 <0>         0.0000
  50202 WAT       -30.1820  -69.9160   -9.3330 O         1 <0>         0.0000
  50203 WAT       -30.1820  -69.9160   -9.0830 O         1 <0>         0.0000
  50204 WAT       -30.1820  -69.9160   -8.8330 O         1 <0>         0.0000
  50205 WAT       -30.1820  -69.9160   -8.5830 O         1 <0>         0.0001
  50206 WAT       -30.1820  -69.9160   -8.3330 O         1 <0>         0.0002
  50207 WAT       -30.1820  -69.9160   -8.0830 O         1 <0>         0.0008
  50208 WAT       -30.1820  -69.9160   -7.8330 O         1 <0>         0.0027
  50209 WAT       -30.1820  -69.9160   -7.5830 O         1 <0>         0.0060
  50210 WAT       -30.1820  -69.9160   -7.3330 O         1 <0>         0.0090
  50211 WAT       -30.1820  -69.9160   -7.0830 O         1 <0>         0.0091
  50212 WAT       -30.1820  -69.9160   -6.8330 O         1 <0>         0.0064
  50213 WAT       -30.1820  -69.9160   -6.5830 O         1 <0>         0.0031
  50214 WAT       -30.1820  -69.9160   -6.3330 O         1 <0>         0.0011
  50215 WAT       -30.1820  -69.9160   -6.0830 O         1 <0>         0.0005
  50216 WAT       -30.1820  -69.9160   -5.8330 O         1 <0>         0.0004
  50217 WAT       -30.1820  -69.9160   -5.5830 O         1 <0>         0.0003
  50218 WAT       -30.1820  -69.9160   -5.3330 O         1 <0>         0.0003
  50219 WAT       -30.1820  -69.9160   -5.0830 O         1 <0>         0.0004
  50220 WAT       -30.1820  -69.9160   -4.8330 O         1 <0>         0.0005
  50221 WAT       -30.1820  -69.9160   -4.5830 O         1 <0>         0.0005
  50222 WAT       -30.1820  -69.9160   -4.3330 O         1 <0>         0.0003
  50223 WAT       -30.1820  -69.9160   -4.0830 O         1 <0>         0.0001
  50224 WAT       -30.1820  -69.9160   -3.8330 O         1 <0>         0.0000
  50225 WAT       -30.1820  -69.9160   -3.5830 O         1 <0>         0.0000
  50226 WAT       -30.1820  -69.9160   -3.3330 O         1 <0>         0.0000
  50227 WAT       -30.1820  -69.9160   -3.0830 O         1 <0>         0.0000
  50228 WAT       -30.1820  -69.9160   -2.8330 O         1 <0>         0.0000
  50229 WAT       -30.1820  -69.9160   -2.5830 O         1 <0>         0.0000
  50230 WAT       -30.1820  -69.9160   -2.3330 O         1 <0>         0.0000
  50231 WAT       -30.1820  -69.9160   -2.0830 O         1 <0>         0.0000
  50232 WAT       -30.1820  -69.9160   -1.8330 O         1 <0>         0.0000
  50233 WAT       -30.1820  -69.9160   -1.5830 O         1 <0>         0.0000
  50234 WAT       -30.1820  -69.9160   -1.3330 O         1 <0>         0.0000
  50235 WAT       -30.1820  -69.9160   -1.0830 O         1 <0>         0.0000
  50236 WAT       -30.1820  -69.9160   -0.8330 O         1 <0>         0.0000
  50237 WAT       -30.1820  -69.9160   -0.5830 O         1 <0>         0.0000
  50238 WAT       -30.1820  -69.9160   -0.3330 O         1 <0>         0.0000
  50239 WAT       -30.1820  -69.9160   -0.0830 O         1 <0>         0.0000
  50240 WAT       -30.1820  -69.6660   -9.8330 O         1 <0>         0.0000
  50241 WAT       -30.1820  -69.6660   -9.5830 O         1 <0>         0.0000
  50242 WAT       -30.1820  -69.6660   -9.3330 O         1 <0>         0.0000
  50243 WAT       -30.1820  -69.6660   -9.0830 O         1 <0>         0.0000
  50244 WAT       -30.1820  -69.6660   -8.8330 O         1 <0>         0.0001
  50245 WAT       -30.1820  -69.6660   -8.5830 O         1 <0>         0.0002
  50246 WAT       -30.1820  -69.6660   -8.3330 O         1 <0>         0.0009
  50247 WAT       -30.1820  -69.6660   -8.0830 O         1 <0>         0.0036
  50248 WAT       -30.1820  -69.6660   -7.8330 O         1 <0>         0.0107
  50249 WAT       -30.1820  -69.6660   -7.5830 O         1 <0>         0.0223
  50250 WAT       -30.1820  -69.6660   -7.3330 O         1 <0>         0.0324
  50251 WAT       -30.1820  -69.6660   -7.0830 O         1 <0>         0.0328
  50252 WAT       -30.1820  -69.6660   -6.8330 O         1 <0>         0.0232
  50253 WAT       -30.1820  -69.6660   -6.5830 O         1 <0>         0.0114
  50254 WAT       -30.1820  -69.6660   -6.3330 O         1 <0>         0.0039
  50255 WAT       -30.1820  -69.6660   -6.0830 O         1 <0>         0.0010
  50256 WAT       -30.1820  -69.6660   -5.8330 O         1 <0>         0.0003
  50257 WAT       -30.1820  -69.6660   -5.5830 O         1 <0>         0.0002
  50258 WAT       -30.1820  -69.6660   -5.3330 O         1 <0>         0.0002
  50259 WAT       -30.1820  -69.6660   -5.0830 O         1 <0>         0.0002
  50260 WAT       -30.1820  -69.6660   -4.8330 O         1 <0>         0.0003
  50261 WAT       -30.1820  -69.6660   -4.5830 O         1 <0>         0.0003
  50262 WAT       -30.1820  -69.6660   -4.3330 O         1 <0>         0.0002
  50263 WAT       -30.1820  -69.6660   -4.0830 O         1 <0>         0.0001
  50264 WAT       -30.1820  -69.6660   -3.8330 O         1 <0>         0.0000
  50265 WAT       -30.1820  -69.6660   -3.5830 O         1 <0>         0.0000
  50266 WAT       -30.1820  -69.6660   -3.3330 O         1 <0>         0.0000
  50267 WAT       -30.1820  -69.6660   -3.0830 O         1 <0>         0.0000
  50268 WAT       -30.1820  -69.6660   -2.8330 O         1 <0>         0.0000
  50269 WAT       -30.1820  -69.6660   -2.5830 O         1 <0>         0.0000
  50270 WAT       -30.1820  -69.6660   -2.3330 O         1 <0>         0.0000
  50271 WAT       -30.1820  -69.6660   -2.0830 O         1 <0>         0.0000
  50272 WAT       -30.1820  -69.6660   -1.8330 O         1 <0>         0.0000
  50273 WAT       -30.1820  -69.6660   -1.5830 O         1 <0>         0.0000
  50274 WAT       -30.1820  -69.6660   -1.3330 O         1 <0>         0.0000
  50275 WAT       -30.1820  -69.6660   -1.0830 O         1 <0>         0.0000
  50276 WAT       -30.1820  -69.6660   -0.8330 O         1 <0>         0.0000
  50277 WAT       -30.1820  -69.6660   -0.5830 O         1 <0>         0.0000
  50278 WAT       -30.1820  -69.6660   -0.3330 O         1 <0>         0.0000
  50279 WAT       -30.1820  -69.6660   -0.0830 O         1 <0>         0.0000
  50280 WAT       -30.1820  -69.4160   -9.8330 O         1 <0>         0.0000
  50281 WAT       -30.1820  -69.4160   -9.5830 O         1 <0>         0.0000
  50282 WAT       -30.1820  -69.4160   -9.3330 O         1 <0>         0.0000
  50283 WAT       -30.1820  -69.4160   -9.0830 O         1 <0>         0.0001
  50284 WAT       -30.1820  -69.4160   -8.8330 O         1 <0>         0.0001
  50285 WAT       -30.1820  -69.4160   -8.5830 O         1 <0>         0.0005
  50286 WAT       -30.1820  -69.4160   -8.3330 O         1 <0>         0.0021
  50287 WAT       -30.1820  -69.4160   -8.0830 O         1 <0>         0.0081
  50288 WAT       -30.1820  -69.4160   -7.8330 O         1 <0>         0.0236
  50289 WAT       -30.1820  -69.4160   -7.5830 O         1 <0>         0.0485
  50290 WAT       -30.1820  -69.4160   -7.3330 O         1 <0>         0.0702
  50291 WAT       -30.1820  -69.4160   -7.0830 O         1 <0>         0.0712
  50292 WAT       -30.1820  -69.4160   -6.8330 O         1 <0>         0.0507
  50293 WAT       -30.1820  -69.4160   -6.5830 O         1 <0>         0.0253
  50294 WAT       -30.1820  -69.4160   -6.3330 O         1 <0>         0.0088
  50295 WAT       -30.1820  -69.4160   -6.0830 O         1 <0>         0.0021
  50296 WAT       -30.1820  -69.4160   -5.8330 O         1 <0>         0.0004
  50297 WAT       -30.1820  -69.4160   -5.5830 O         1 <0>         0.0001
  50298 WAT       -30.1820  -69.4160   -5.3330 O         1 <0>         0.0001
  50299 WAT       -30.1820  -69.4160   -5.0830 O         1 <0>         0.0001
  50300 WAT       -30.1820  -69.4160   -4.8330 O         1 <0>         0.0001
  50301 WAT       -30.1820  -69.4160   -4.5830 O         1 <0>         0.0001
  50302 WAT       -30.1820  -69.4160   -4.3330 O         1 <0>         0.0001
  50303 WAT       -30.1820  -69.4160   -4.0830 O         1 <0>         0.0000
  50304 WAT       -30.1820  -69.4160   -3.8330 O         1 <0>         0.0000
  50305 WAT       -30.1820  -69.4160   -3.5830 O         1 <0>         0.0000
  50306 WAT       -30.1820  -69.4160   -3.3330 O         1 <0>         0.0000
  50307 WAT       -30.1820  -69.4160   -3.0830 O         1 <0>         0.0000
  50308 WAT       -30.1820  -69.4160   -2.8330 O         1 <0>         0.0000
  50309 WAT       -30.1820  -69.4160   -2.5830 O         1 <0>         0.0000
  50310 WAT       -30.1820  -69.4160   -2.3330 O         1 <0>         0.0000
  50311 WAT       -30.1820  -69.4160   -2.0830 O         1 <0>         0.0000
  50312 WAT       -30.1820  -69.4160   -1.8330 O         1 <0>         0.0000
  50313 WAT       -30.1820  -69.4160   -1.5830 O         1 <0>         0.0000
  50314 WAT       -30.1820  -69.4160   -1.3330 O         1 <0>         0.0000
  50315 WAT       -30.1820  -69.4160   -1.0830 O         1 <0>         0.0000
  50316 WAT       -30.1820  -69.4160   -0.8330 O         1 <0>         0.0000
  50317 WAT       -30.1820  -69.4160   -0.5830 O         1 <0>         0.0000
  50318 WAT       -30.1820  -69.4160   -0.3330 O         1 <0>         0.0000
  50319 WAT       -30.1820  -69.4160   -0.0830 O         1 <0>         0.0000
  50320 WAT       -30.1820  -69.1660   -9.8330 O         1 <0>         0.0000
  50321 WAT       -30.1820  -69.1660   -9.5830 O         1 <0>         0.0000
  50322 WAT       -30.1820  -69.1660   -9.3330 O         1 <0>         0.0000
  50323 WAT       -30.1820  -69.1660   -9.0830 O         1 <0>         0.0001
  50324 WAT       -30.1820  -69.1660   -8.8330 O         1 <0>         0.0002
  50325 WAT       -30.1820  -69.1660   -8.5830 O         1 <0>         0.0007
  50326 WAT       -30.1820  -69.1660   -8.3330 O         1 <0>         0.0028
  50327 WAT       -30.1820  -69.1660   -8.0830 O         1 <0>         0.0109
  50328 WAT       -30.1820  -69.1660   -7.8330 O         1 <0>         0.0317
  50329 WAT       -30.1820  -69.1660   -7.5830 O         1 <0>         0.0654
  50330 WAT       -30.1820  -69.1660   -7.3330 O         1 <0>         0.0951
  50331 WAT       -30.1820  -69.1660   -7.0830 O         1 <0>         0.0971
  50332 WAT       -30.1820  -69.1660   -6.8330 O         1 <0>         0.0697
  50333 WAT       -30.1820  -69.1660   -6.5830 O         1 <0>         0.0351
  50334 WAT       -30.1820  -69.1660   -6.3330 O         1 <0>         0.0123
  50335 WAT       -30.1820  -69.1660   -6.0830 O         1 <0>         0.0029
  50336 WAT       -30.1820  -69.1660   -5.8330 O         1 <0>         0.0005
  50337 WAT       -30.1820  -69.1660   -5.5830 O         1 <0>         0.0001
  50338 WAT       -30.1820  -69.1660   -5.3330 O         1 <0>         0.0000
  50339 WAT       -30.1820  -69.1660   -5.0830 O         1 <0>         0.0000
  50340 WAT       -30.1820  -69.1660   -4.8330 O         1 <0>         0.0000
  50341 WAT       -30.1820  -69.1660   -4.5830 O         1 <0>         0.0000
  50342 WAT       -30.1820  -69.1660   -4.3330 O         1 <0>         0.0000
  50343 WAT       -30.1820  -69.1660   -4.0830 O         1 <0>         0.0000
  50344 WAT       -30.1820  -69.1660   -3.8330 O         1 <0>         0.0000
  50345 WAT       -30.1820  -69.1660   -3.5830 O         1 <0>         0.0000
  50346 WAT       -30.1820  -69.1660   -3.3330 O         1 <0>         0.0000
  50347 WAT       -30.1820  -69.1660   -3.0830 O         1 <0>         0.0000
  50348 WAT       -30.1820  -69.1660   -2.8330 O         1 <0>         0.0000
  50349 WAT       -30.1820  -69.1660   -2.5830 O         1 <0>         0.0000
  50350 WAT       -30.1820  -69.1660   -2.3330 O         1 <0>         0.0000
  50351 WAT       -30.1820  -69.1660   -2.0830 O         1 <0>         0.0000
  50352 WAT       -30.1820  -69.1660   -1.8330 O         1 <0>         0.0000
  50353 WAT       -30.1820  -69.1660   -1.5830 O         1 <0>         0.0000
  50354 WAT       -30.1820  -69.1660   -1.3330 O         1 <0>         0.0000
  50355 WAT       -30.1820  -69.1660   -1.0830 O         1 <0>         0.0000
  50356 WAT       -30.1820  -69.1660   -0.8330 O         1 <0>         0.0000
  50357 WAT       -30.1820  -69.1660   -0.5830 O         1 <0>         0.0000
  50358 WAT       -30.1820  -69.1660   -0.3330 O         1 <0>         0.0000
  50359 WAT       -30.1820  -69.1660   -0.0830 O         1 <0>         0.0000
  50360 WAT       -30.1820  -68.9160   -9.8330 O         1 <0>         0.0000
  50361 WAT       -30.1820  -68.9160   -9.5830 O         1 <0>         0.0000
  50362 WAT       -30.1820  -68.9160   -9.3330 O         1 <0>         0.0000
  50363 WAT       -30.1820  -68.9160   -9.0830 O         1 <0>         0.0001
  50364 WAT       -30.1820  -68.9160   -8.8330 O         1 <0>         0.0002
  50365 WAT       -30.1820  -68.9160   -8.5830 O         1 <0>         0.0005
  50366 WAT       -30.1820  -68.9160   -8.3330 O         1 <0>         0.0021
  50367 WAT       -30.1820  -68.9160   -8.0830 O         1 <0>         0.0088
  50368 WAT       -30.1820  -68.9160   -7.8330 O         1 <0>         0.0262
  50369 WAT       -30.1820  -68.9160   -7.5830 O         1 <0>         0.0546
  50370 WAT       -30.1820  -68.9160   -7.3330 O         1 <0>         0.0801
  50371 WAT       -30.1820  -68.9160   -7.0830 O         1 <0>         0.0825
  50372 WAT       -30.1820  -68.9160   -6.8330 O         1 <0>         0.0597
  50373 WAT       -30.1820  -68.9160   -6.5830 O         1 <0>         0.0302
  50374 WAT       -30.1820  -68.9160   -6.3330 O         1 <0>         0.0105
  50375 WAT       -30.1820  -68.9160   -6.0830 O         1 <0>         0.0025
  50376 WAT       -30.1820  -68.9160   -5.8330 O         1 <0>         0.0004
  50377 WAT       -30.1820  -68.9160   -5.5830 O         1 <0>         0.0000
  50378 WAT       -30.1820  -68.9160   -5.3330 O         1 <0>         0.0000
  50379 WAT       -30.1820  -68.9160   -5.0830 O         1 <0>         0.0000
  50380 WAT       -30.1820  -68.9160   -4.8330 O         1 <0>         0.0000
  50381 WAT       -30.1820  -68.9160   -4.5830 O         1 <0>         0.0000
  50382 WAT       -30.1820  -68.9160   -4.3330 O         1 <0>         0.0000
  50383 WAT       -30.1820  -68.9160   -4.0830 O         1 <0>         0.0000
  50384 WAT       -30.1820  -68.9160   -3.8330 O         1 <0>         0.0000
  50385 WAT       -30.1820  -68.9160   -3.5830 O         1 <0>         0.0000
  50386 WAT       -30.1820  -68.9160   -3.3330 O         1 <0>         0.0000
  50387 WAT       -30.1820  -68.9160   -3.0830 O         1 <0>         0.0000
  50388 WAT       -30.1820  -68.9160   -2.8330 O         1 <0>         0.0000
  50389 WAT       -30.1820  -68.9160   -2.5830 O         1 <0>         0.0000
  50390 WAT       -30.1820  -68.9160   -2.3330 O         1 <0>         0.0000
  50391 WAT       -30.1820  -68.9160   -2.0830 O         1 <0>         0.0000
  50392 WAT       -30.1820  -68.9160   -1.8330 O         1 <0>         0.0000
  50393 WAT       -30.1820  -68.9160   -1.5830 O         1 <0>         0.0000
  50394 WAT       -30.1820  -68.9160   -1.3330 O         1 <0>         0.0000
  50395 WAT       -30.1820  -68.9160   -1.0830 O         1 <0>         0.0000
  50396 WAT       -30.1820  -68.9160   -0.8330 O         1 <0>         0.0000
  50397 WAT       -30.1820  -68.9160   -0.5830 O         1 <0>         0.0000
  50398 WAT       -30.1820  -68.9160   -0.3330 O         1 <0>         0.0000
  50399 WAT       -30.1820  -68.9160   -0.0830 O         1 <0>         0.0000
