@<TRIPOS>MOLECULE
HD1
   17    17     1     0     0
SMALL
RESP Charge
 
 
@<TRIPOS>ATOM
      1 N         -35.8630  -68.9740   -1.6920 N         1 HD1     -0.415700
      2 H         -36.6710  -68.4620   -2.0160 H         1 HD1      0.271570
      3 CA        -35.1690  -69.8540   -2.6420 CX        1 HD1      0.018800
      4 HA        -34.9410  -70.8090   -2.1690 H1        1 HD1      0.129516
      5 CB        -36.0620  -70.1140   -3.8670 CT        1 HD1     -0.275708
      6 HB2       -36.5120  -69.1740   -4.1850 HC        1 HD1      0.110045
      7 HB3       -35.4900  -70.5390   -4.6920 HC        1 HD1      0.110045
      8 CG        -37.1970  -71.0650   -3.5950 CC        1 HD1      0.074406
      9 ND1       -38.0990  -71.4560   -4.5640 NA        1 HD1     -0.142527
     10 HD1       -38.1230  -71.1440   -5.5240 H         1 HD1      0.297799
     11 CE1       -38.9390  -72.3250   -4.0010 CR        1 HD1     -0.112726
     12 HE1       -39.7160  -72.7300   -4.6500 H5        1 HD1      0.166638
     13 NE2       -38.6730  -72.5460   -2.7240 Y1        1 HD1     -0.155458
     14 CD2       -37.5730  -71.7370   -2.4540 CV        1 HD1     -0.113192
     15 HD2       -37.1480  -71.7120   -1.4510 H4        1 HD1      0.167675
     16 C         -33.7580  -69.3840   -3.0400 C         1 HD1      0.597300
     17 O         -33.0630  -70.1220   -3.7390 O         1 HD1     -0.567900
@<TRIPOS>BOND
     1    1    2 1
     2    1    3 1
     3    3    4 1
     4    3    5 1
     5    3   16 1
     6    5    6 1
     7    5    7 1
     8    5    8 1
     9    8    9 1
    10    8   14 1
    11    9   10 1
    12    9   11 1
    13   11   12 1
    14   11   13 1
    15   13   14 1
    16   14   15 1
    17   16   17 1
@<TRIPOS>SUBSTRUCTURE
     1 HD1         1 TEMP              0 ****  ****    0 ROOT
