@<TRIPOS>MOLECULE
HM1
   72    76     1     0     0
SMALL
RESP Charge
 
 
@<TRIPOS>ATOM
      1 CHA       -36.8960  -75.8750   -0.9940 ce        1 HM1     -0.120124
      2 CHB       -40.9320  -75.8680   -3.6210 ce        1 HM1     -0.155960
      3 CHC       -42.3330  -71.8270   -1.4250 ce        1 HM1     -0.120893
      4 CHD       -38.4260  -71.9940    1.3830 ce        1 HM1     -0.156171
      5 C1A       -37.8910  -76.2770   -1.8910 cc        1 HM1     -0.029678
      6 C2A       -37.8800  -77.4440   -2.6320 cc        1 HM1     -0.114554
      7 C3A       -39.0200  -77.4360   -3.4060 cd        1 HM1      0.038257
      8 C4A       -39.7050  -76.2750   -3.0870 cd        1 HM1     -0.019820
      9 CMA       -39.4350  -78.5250   -4.3850 c3        1 HM1     -0.184586
     10 CAA       -36.8200  -78.5330   -2.5770 c3        1 HM1     -0.017007
     11 CBA       -36.9890  -79.4610   -1.3540 c3        1 HM1     -0.017004
     12 CGA       -35.9020  -80.5390   -1.3070 c         1 HM1      0.555302
     13 O1A       -35.6350  -81.1500   -2.3630 o         1 HM1     -0.550094
     14 O2A       -35.3500  -80.7580   -0.2070 o         1 HM1     -0.467596
     15 C1B       -41.6810  -74.7260   -3.3160 cc        1 HM1     -0.072348
     16 C2B       -42.8740  -74.3510   -3.9080 cc        1 HM1      0.075197
     17 C3B       -43.2590  -73.1620   -3.3140 cd        1 HM1     -0.038359
     18 C4B       -42.3120  -72.8920   -2.3360 cd        1 HM1     -0.048416
     19 CMB       -43.6140  -75.1320   -4.9840 c3        1 HM1     -0.142641
     20 CAB       -44.4370  -72.3230   -3.6290 cf        1 HM1     -0.104361
     21 CBB       -45.0470  -72.2210   -4.8230 c2        1 HM1     -0.375577
     22 C1C       -41.4280  -71.5330   -0.3960 cc        1 HM1     -0.023348
     23 C2C       -41.5930  -70.5480    0.5650 cc        1 HM1      0.027662
     24 C3C       -40.4950  -70.6130    1.4070 cd        1 HM1     -0.012812
     25 C4C       -39.6860  -71.6190    0.8990 cd        1 HM1     -0.101592
     26 CMC       -42.8070  -69.6390    0.6790 c3        1 HM1     -0.178209
     27 CAC       -40.1800  -69.8160    2.6160 cf        1 HM1     -0.055144
     28 CBC       -40.6120  -68.5800    2.9130 c2        1 HM1     -0.375994
     29 C1D       -37.5910  -73.0210    0.9300 cc        1 HM1     -0.040915
     30 C2D       -36.3010  -73.2650    1.3690 cc        1 HM1      0.030098
     31 C3D       -35.8510  -74.3740    0.6810 cd        1 HM1     -0.071643
     32 C4D       -36.8920  -74.7640   -0.1470 cd        1 HM1     -0.018105
     33 CMD       -35.5490  -72.4480    2.4080 c3        1 HM1     -0.109600
     34 CAD       -34.4820  -75.0390    0.8000 c3        1 HM1     -0.040791
     35 CBD       -34.5060  -76.2610    1.7470 c3        1 HM1     -0.053648
     36 CGD       -33.1490  -76.9650    1.8960 c         1 HM1      0.612446
     37 O1D       -32.2120  -76.6690    1.1230 o         1 HM1     -0.538220
     38 O2D       -33.0710  -77.8320    2.7930 o         1 HM1     -0.500976
     39 NA        -39.0110  -75.5800   -2.1610 Y2        1 HM1      0.027983
     40 NB        -41.3480  -73.8330   -2.3660 Y3        1 HM1      0.031802
     41 NC        -40.2770  -72.1930   -0.1680 Y4        1 HM1      0.027256
     42 ND        -37.9330  -73.9210   -0.0100 Y5        1 HM1     -0.082818
     43 HHA       -36.0210  -76.5050   -0.9390 ha        1 HM1      0.174216
     44 HHB       -41.3520  -76.5150   -4.3740 ha        1 HM1      0.126438
     45 HHC       -43.1800  -71.1650   -1.5030 ha        1 HM1      0.088223
     46 HHD       -38.0300  -71.3980    2.1900 ha        1 HM1      0.150393
     47 HMA1      -40.1340  -78.1610   -5.1380 hc        1 HM1      0.057382
     48 HMA2      -38.5740  -78.9240   -4.9230 hc        1 HM1      0.057382
     49 HMA3      -39.9180  -79.3400   -3.8460 hc        1 HM1      0.057382
     50 HAA1      -35.8450  -78.0480   -2.5380 hc        1 HM1      0.040999
     51 HAA2      -36.8340  -79.1040   -3.5050 hc        1 HM1      0.040999
     52 HBA1      -37.9590  -79.9560   -1.3880 hc        1 HM1      0.008548
     53 HBA2      -36.9660  -78.8780   -0.4310 hc        1 HM1      0.008548
     54 HMB1      -44.6830  -74.9250   -4.9730 hc        1 HM1      0.042833
     55 HMB2      -43.2160  -74.8670   -5.9610 hc        1 HM1      0.042833
     56 HMB3      -43.5070  -76.2060   -4.8420 hc        1 HM1      0.042833
     57 HAB       -44.8490  -71.7580   -2.8080 ha        1 HM1      0.133560
     58 HBB1      -45.9150  -71.5930   -4.9470 ha        1 HM1      0.138747
     59 HBB2      -44.6930  -72.7490   -5.6970 ha        1 HM1      0.138747
     60 HMC1      -42.9490  -69.2690    1.6930 hc        1 HM1      0.054704
     61 HMC2      -42.7050  -68.7980   -0.0060 hc        1 HM1      0.054704
     62 HMC3      -43.7190  -70.1770    0.4250 hc        1 HM1      0.054704
     63 HAC       -39.5460  -70.2960    3.3460 ha        1 HM1      0.100302
     64 HBC1      -40.3220  -68.1060    3.8380 ha        1 HM1      0.134814
     65 HBC2      -41.2450  -68.0180    2.2460 ha        1 HM1      0.134814
     66 HMD1      -34.5160  -72.7690    2.5230 hc        1 HM1      0.033934
     67 HMD2      -35.5400  -71.3940    2.1280 hc        1 HM1      0.033934
     68 HMD3      -36.0430  -72.5340    3.3760 hc        1 HM1      0.033934
     69 HAD1      -33.7460  -74.3100    1.1370 hc        1 HM1      0.050189
     70 HAD2      -34.1530  -75.3370   -0.1970 hc        1 HM1      0.050189
     71 HBD1      -35.2110  -77.0020    1.3700 hc        1 HM1      0.015667
     72 HBD2      -34.8490  -75.9600    2.7370 hc        1 HM1      0.015667
@<TRIPOS>BOND
     1    1    5 1
     2    1   32 1
     3    1   43 1
     4    2    8 1
     5    2   15 1
     6    2   44 1
     7    3   18 1
     8    3   22 1
     9    3   45 1
    10    4   25 1
    11    4   29 1
    12    4   46 1
    13    5    6 1
    14    5   39 1
    15    6    7 1
    16    6   10 1
    17    7    8 1
    18    7    9 1
    19    8   39 1
    20    9   47 1
    21    9   48 1
    22    9   49 1
    23   10   11 1
    24   10   50 1
    25   10   51 1
    26   11   12 1
    27   11   52 1
    28   11   53 1
    29   12   13 1
    30   12   14 1
    31   15   16 1
    32   15   40 1
    33   16   17 1
    34   16   19 1
    35   17   18 1
    36   17   20 1
    37   18   40 1
    38   19   54 1
    39   19   55 1
    40   19   56 1
    41   20   21 1
    42   20   57 1
    43   21   58 1
    44   21   59 1
    45   22   23 1
    46   22   41 1
    47   23   24 1
    48   23   26 1
    49   24   25 1
    50   24   27 1
    51   25   41 1
    52   26   60 1
    53   26   61 1
    54   26   62 1
    55   27   28 1
    56   27   63 1
    57   28   64 1
    58   28   65 1
    59   29   30 1
    60   29   42 1
    61   30   31 1
    62   30   33 1
    63   31   32 1
    64   31   34 1
    65   32   42 1
    66   33   66 1
    67   33   67 1
    68   33   68 1
    69   34   35 1
    70   34   69 1
    71   34   70 1
    72   35   36 1
    73   35   71 1
    74   35   72 1
    75   36   37 1
    76   36   38 1
@<TRIPOS>SUBSTRUCTURE
     1 HM1         1 TEMP              0 ****  ****    0 ROOT
