@<TRIPOS>MOLECULE
WT1
    3     2     1     0     0
SMALL
RESP Charge
 
 
@<TRIPOS>ATOM
      1 O         -40.6390  -75.1130    0.1220 Y6        1 WT1     -0.698191
      2 H1        -39.6390  -75.1130    0.1220 HW        1 WT1      0.395297
      3 H2        -40.9720  -74.1700    0.1220 HW        1 WT1      0.407229
@<TRIPOS>BOND
     1    1    2 1
     2    1    3 1
@<TRIPOS>SUBSTRUCTURE
     1 WT1         1 TEMP              0 ****  ****    0 ROOT
