@<TRIPOS>MOLECULE
1hpx_lig.pdb
 87 90 0 0 0
SMALL
GASTEIGER

@<TRIPOS>ATOM
      1 C1          6.8480    1.1810    6.1590 C.ar      1 SUB         0.0283
      2 C2          6.3030    2.0170    7.1160 C.ar      1 SUB        -0.0324
      3 C3          6.8860    3.2730    7.3630 C.ar      1 SUB         0.0267
      4 C4          7.9910    3.5920    6.6130 C.ar      1 SUB         0.0037
      5 C5          8.4680    2.6490    5.6450 C.ar      1 SUB         0.0354
      6 C6          6.3520    4.1700    8.3470 C.ar      1 SUB         0.1290
      7 C7          7.0000    5.3880    8.5210 C.ar      1 SUB        -0.0193
      8 C8          8.1090    5.7150    7.7740 C.ar      1 SUB        -0.0577
      9 C9          8.6290    4.8460    6.8160 C.ar      1 SUB        -0.0524
     10 C10         5.1400    4.3750   10.3520 C.3       1 SUB         0.1652
     11 C11         4.0670    3.6830   11.1060 C.2       1 SUB         0.2513
     12 N1          7.9070    1.4590    5.4270 N.ar      1 SUB        -0.2626
     13 O1          5.2350    3.7910    9.0820 O.3       1 SUB        -0.4822
     14 O3          3.3270    4.2970   11.8520 O.2       1 SUB        -0.2721
     15 N2          3.9550    2.3840   10.8930 N.am      1 SUB        -0.3005
     16 C26         3.0280    1.6030   11.6960 C.3       1 SUB         0.1084
     17 C12         1.9440    1.0010   10.8350 C.3       1 SUB         0.0204
     18 S1          0.6680    0.4350   11.9930 S.3       1 SUB        -0.1618
     19 C27        -0.1580    2.0560   12.1600 C.3       1 SUB        -0.0180
     20 C13         3.7830    0.5420   12.4570 C.2       1 SUB         0.2345
     21 O6          3.7580   -0.6290   12.1110 O.2       1 SUB        -0.2737
     22 C17         5.3390   -1.3860   16.3300 C.2       1 SUB         0.2473
     23 N3          4.4960    0.9820   13.4920 N.am      1 SUB        -0.3076
     24 O4          6.3240   -1.2340   17.0450 O.2       1 SUB        -0.2727
     25 C15         4.7050   -0.1800   15.6420 C.3       1 SUB         0.1495
     26 C28         7.3720    0.9000   12.9760 C.ar      1 SUB        -0.0455
     27 C16         6.7750    0.6540   14.3470 C.3       1 SUB        -0.0063
     28 C31         8.4650    1.3190   10.4460 C.ar      1 SUB        -0.0617
     29 C14         5.3500    0.0820   14.2740 C.3       1 SUB         0.0616
     30 O2          4.9490    0.9340   16.4270 O.3       1 SUB        -0.3807
     31 C29         7.4010    2.1660   12.4260 C.ar      1 SUB        -0.0585
     32 C33         7.8990   -0.1460   12.2450 C.ar      1 SUB        -0.0585
     33 C30         7.9490    2.3680   11.1710 C.ar      1 SUB        -0.0615
     34 C32         8.4370    0.0660   10.9930 C.ar      1 SUB        -0.0615
     35 N4          4.7420   -2.5650   16.0640 N.am      1 SUB        -0.2777
     36 C20         3.5440   -2.6640   15.2240 C.3       1 SUB         0.0619
     37 C18         5.3730   -3.8190   16.5060 C.3       1 SUB         0.1120
     38 C19         4.4270   -4.9930   16.2580 C.3       1 SUB         0.0224
     39 S2          3.2630   -4.4400   14.9730 S.3       1 SUB        -0.1393
     40 C21         6.6530   -3.9790   15.7410 C.2       1 SUB         0.2348
     41 O5          6.7460   -3.5740   14.5880 O.2       1 SUB        -0.2737
     42 N5          7.6370   -4.5750   16.4030 N.am      1 SUB        -0.3090
     43 C22         9.0130   -4.6390   15.8920 C.3       1 SUB         0.0262
     44 C23         9.5560   -3.2490   15.5420 C.3       1 SUB        -0.0442
     45 C24         9.0970   -5.5670   14.6780 C.3       1 SUB        -0.0442
     46 C25         9.8800   -5.1830   17.0210 C.3       1 SUB        -0.0442
     47 H1          6.3830    0.2160    6.0010 H         1 SUB         0.0830
     48 H2          5.4620    1.7630    7.7090 H         1 SUB         0.0640
     49 H5          9.3360    2.9140    5.0590 H         1 SUB         0.0836
     50 H7          6.6440    6.0890    9.2580 H         1 SUB         0.0654
     51 H8          8.6070    6.6600    7.9340 H         1 SUB         0.0619
     52 H9          9.5090    5.1250    6.2510 H         1 SUB         0.0624
     53 H101        4.9080    5.4400   10.2800 H         1 SUB         0.0795
     54 H102        6.0650    4.2720   10.9200 H         1 SUB         0.0795
     55 HN2         4.5420    1.9150   10.2370 H         1 SUB         0.1496
     56 H26         2.5370    2.2260   12.4440 H         1 SUB         0.0603
     57 H121        2.3020    0.1560   10.2490 H         1 SUB         0.0399
     58 H122        1.5120    1.7280   10.1470 H         1 SUB         0.0399
     59 H271       -0.9880    1.9690   12.8550 H         1 SUB         0.0340
     60 H272       -0.5410    2.3770   11.1910 H         1 SUB         0.0340
     61 H273        0.5380    2.8110   12.5230 H         1 SUB         0.0340
     62 HN3         4.4760    1.9510   13.7500 H         1 SUB         0.1491
     63 H15         3.6200   -0.2630   15.5740 H         1 SUB         0.0709
     64 H161        7.4370   -0.0070   14.9100 H         1 SUB         0.0332
     65 H162        6.7590    1.5900   14.9110 H         1 SUB         0.0332
     66 H31         8.8870    1.4780    9.4630 H         1 SUB         0.0618
     67 H14         5.4270   -0.8780   13.7600 H         1 SUB         0.0532
     68 HO2         5.8770    0.7830   16.6640 H         1 SUB         0.2105
     69 H29         6.9930    3.0000   12.9840 H         1 SUB         0.0620
     70 H33         7.8840   -1.1380   12.6750 H         1 SUB         0.0620
     71 H30         7.9750    3.3650   10.7580 H         1 SUB         0.0618
     72 H32         8.8490   -0.7620   10.4350 H         1 SUB         0.0618
     73 H201        2.6870   -2.2030   15.7120 H         1 SUB         0.0580
     74 H202        3.7050   -2.1860   14.2570 H         1 SUB         0.0580
     75 H18         5.5970   -3.7540   17.5730 H         1 SUB         0.0605
     76 H191        3.8610   -5.2070   17.1640 H         1 SUB         0.0400
     77 H192        4.9340   -5.9150   15.9680 H         1 SUB         0.0400
     78 HN5         7.4410   -4.9320   17.3200 H         1 SUB         0.1493
     79 H231       10.6090   -3.2990   15.2650 H         1 SUB         0.0250
     80 H232        9.4700   -2.5590   16.3820 H         1 SUB         0.0250
     81 H233        9.0370   -2.7940   14.6990 H         1 SUB         0.0250
     82 H241       10.1130   -5.6140   14.2890 H         1 SUB         0.0250
     83 H242        8.4540   -5.2410   13.8640 H         1 SUB         0.0250
     84 H243        8.7950   -6.5820   14.9380 H         1 SUB         0.0250
     85 H251       10.8970   -5.3850   16.6790 H         1 SUB         0.0250
     86 H252        9.4870   -6.1170   17.4210 H         1 SUB         0.0250
     87 H253        9.9560   -4.4740   17.8460 H         1 SUB         0.0250
@<TRIPOS>BOND
     1     1     2   ar
     2     1    12   ar
     3     1    47    1
     4     2     3   ar
     5     2    48    1
     6     3     4   ar
     7     3     6   ar
     8     4     5   ar
     9     4     9   ar
    10     5    12   ar
    11     5    49    1
    12     6     7   ar
    13     6    13    1
    14     7     8   ar
    15     7    50    1
    16     8     9   ar
    17     8    51    1
    18     9    52    1
    19    10    11    1
    20    10    13    1
    21    10    53    1
    22    10    54    1
    23    11    14    2
    24    11    15   am
    25    15    16    1
    26    15    55    1
    27    16    17    1
    28    16    20    1
    29    16    56    1
    30    17    18    1
    31    17    57    1
    32    17    58    1
    33    18    19    1
    34    19    59    1
    35    19    60    1
    36    19    61    1
    37    20    21    2
    38    20    23   am
    39    22    24    2
    40    22    25    1
    41    22    35   am
    42    23    29    1
    43    23    62    1
    44    25    29    1
    45    25    30    1
    46    25    63    1
    47    26    27    1
    48    26    31   ar
    49    26    32   ar
    50    27    29    1
    51    27    64    1
    52    27    65    1
    53    28    33   ar
    54    28    34   ar
    55    28    66    1
    56    29    67    1
    57    30    68    1
    58    31    33   ar
    59    31    69    1
    60    32    34   ar
    61    32    70    1
    62    33    71    1
    63    34    72    1
    64    35    36    1
    65    35    37    1
    66    36    39    1
    67    36    73    1
    68    36    74    1
    69    37    38    1
    70    37    40    1
    71    37    75    1
    72    38    39    1
    73    38    76    1
    74    38    77    1
    75    40    41    2
    76    40    42   am
    77    42    43    1
    78    42    78    1
    79    43    44    1
    80    43    45    1
    81    43    46    1
    82    44    79    1
    83    44    80    1
    84    44    81    1
    85    45    82    1
    86    45    83    1
    87    45    84    1
    88    46    85    1
    89    46    86    1
    90    46    87    1
