@<TRIPOS>MOLECULE
MyBindingSite.pdb
 90 93 0 0 0
SMALL
GASTEIGER

@<TRIPOS>ATOM
      1  C1        13.8670   16.5830   12.1980 C.ar  900  KNI900      0.0283
      2  N1        13.3200   16.3440   11.0010 N.ar  900  KNI900     -0.2626
      3  O1        11.4470   18.5770   15.0330 O.3   900  KNI900     -0.4822
      4  S1        14.6580   18.8280   20.7230 S.3   900  KNI900     -0.1619
      5  C2        13.0530   17.2630   13.1200 C.ar  900  KNI900     -0.0324
      6  N2        12.7210   19.2780   17.3000 N.am  900  KNI900     -0.3658
      7  O2        14.1150   24.8580   18.7760 O.3   900  KNI900     -0.3807
      8  S2        19.4720   22.5960   19.8520 S.3   900  KNI900     -0.1393
      9  C3        11.7790   17.7000   12.8310 C.ar  900  KNI900      0.0267
     10  N3        14.1300   21.9310   17.9570 N.am  900  KNI900     -0.3717
     11  O3        10.7470   19.9470   18.1670 O.2   900  KNI900     -0.2737
     12  C4        11.2290   17.4630   11.4810 C.ar  900  KNI900      0.0037
     13  N4        17.6840   24.2950   19.0290 N.am  900  KNI900     -0.2778
     14  O4        16.4940   25.8450   17.9870 O.2   900  KNI900     -0.2727
     15  C5        12.0910   16.7600   10.5910 C.ar  900  KNI900      0.0354
     16  N5        19.8040   25.9480   16.7010 N.am  900  KNI900     -0.3726
     17  O5        18.8500   23.9070   16.5960 O.2   900  KNI900     -0.2753
     18  C6        10.9040   18.3450   13.7550 C.ar  900  KNI900      0.1290
     19  O6        15.8040   20.3480   17.8500 O.2   900  KNI900     -0.2754
     20  C7         9.6060   18.7940   13.4330 C.ar  900  KNI900     -0.0193
     21  C8         9.1590   18.5890   12.1120 C.ar  900  KNI900     -0.0577
     22  C9         9.9560   17.9450   11.1940 C.ar  900  KNI900     -0.0524
     23  C10       10.5470   19.1620   15.9700 C.3   900  KNI900      0.1637
     24  C11       11.3850   19.5230   17.2150 C.2   900  KNI900      0.2354
     25  C12       14.0900   18.4330   19.0510 C.3   900  KNI900      0.0189
     26  C13       14.6380   20.6500   18.0500 C.2   900  KNI900      0.2172
     27  C14       15.1100   23.0190   17.5900 C.3   900  KNI900      0.0459
     28  C15       15.2300   24.0270   18.7290 C.3   900  KNI900      0.1481
     29  C16       14.5720   23.6880   16.3070 C.3   900  KNI900     -0.0077
     30  C17       16.4710   24.7960   18.5770 C.2   900  KNI900      0.2473
     31  C18       18.9200   25.0100   18.7030 C.3   900  KNI900      0.1105
     32  C19       19.9910   24.2810   19.3940 C.3   900  KNI900      0.0223
     33  C20       17.7260   23.0660   19.8960 C.3   900  KNI900      0.0619
     34  C21       19.0910   24.8830   17.2510 C.2   900  KNI900      0.2190
     35  C22       20.1120   26.0890   15.2390 C.3   900  KNI900      0.0101
     36  C23       18.8180   25.9630   14.4470 C.3   900  KNI900     -0.0457
     37  C24       21.0740   25.0100   14.8070 C.3   900  KNI900     -0.0457
     38  C25       20.7630   27.5370   15.1640 C.3   900  KNI900     -0.0457
     39  C26       13.5110   19.7410   18.4480 C.3   900  KNI900      0.0922
     40  C27       13.1340   18.5860   21.6220 C.3   900  KNI900     -0.0180
     41  C28       14.3590   22.7530   15.1790 C.ar  900  KNI900     -0.0456
     42  C29       15.4830   22.3060   14.4340 C.ar  900  KNI900     -0.0585
     43  C30       15.1910   21.4420   13.3350 C.ar  900  KNI900     -0.0615
     44  C31       13.9020   21.0830   13.0980 C.ar  900  KNI900     -0.0617
     45  C32       12.8290   21.4700   13.8470 C.ar  900  KNI900     -0.0615
     46  C33       13.0930   22.3550   14.9120 C.ar  900  KNI900     -0.0585
     47  DN2       13.2330   18.9200   16.5350 H     900  KNI900      0.1267
     48  DN3       13.1370   22.0960   17.9380 H     900  KNI900      0.1263
     49  DN5       19.9910   26.6850   17.3290 H     900  KNI900      0.1264
     50  HN2       13.2330   18.9200   16.5350 H     900  KNI900      0.1267
     51  HN3       13.1370   22.0960   17.9380 H     900  KNI900      0.1263
     52  HN5       19.9910   26.6850   17.3290 H     900  KNI900      0.1264
     53  DO2       14.0450   25.0970   19.7050 H     900  KNI900      0.2105
     54  H1        14.8850   16.2870   12.4360 H     900  KNI900      0.0830
     55  H2        13.3890   17.3820   14.1290 H     900  KNI900      0.0640
     56  H5        11.7530   16.5520    9.5780 H     900  KNI900      0.0836
     57  H7         8.9840   19.3460   14.1340 H     900  KNI900      0.0654
     58  H8         8.1470   18.8630   11.8310 H     900  KNI900      0.0619
     59  H9         9.5530   17.7500   10.2030 H     900  KNI900      0.0624
     60  H14       16.0300   22.4850   17.3440 H     900  KNI900      0.0517
     61  H15       15.3440   23.4700   19.6530 H     900  KNI900      0.0709
     62  H18       18.9530   26.0600   19.0710 H     900  KNI900      0.0605
     63  H26       12.6890   20.1130   19.0560 H     900  KNI900      0.0587
     64  H29       16.5220   22.4570   14.6740 H     900  KNI900      0.0620
     65  H30       16.0140   21.0690   12.7450 H     900  KNI900      0.0618
     66  H31       13.6740   20.3990   12.2910 H     900  KNI900      0.0618
     67  H32       11.8410   21.1350   13.5940 H     900  KNI900      0.0618
     68  H33       12.2690   22.7240   15.4280 H     900  KNI900      0.0620
     69 H101        9.7920   18.4260   16.2310 H     900  KNI900      0.0794
     70 H102       10.0910   20.0700   15.5960 H     900  KNI900      0.0794
     71 H121       13.3820   17.5850   18.9330 H     900  KNI900      0.0399
     72 H122       14.9400   18.2550   18.3940 H     900  KNI900      0.0399
     73 H161       13.6300   24.1250   16.5180 H     900  KNI900      0.0332
     74 H162       15.2620   24.4580   15.9780 H     900  KNI900      0.0332
     75 H191       20.8250   24.1150   18.7520 H     900  KNI900      0.0400
     76 H192       20.3520   24.8060   20.2740 H     900  KNI900      0.0400
     77 H201       17.4160   23.2800   20.8780 H     900  KNI900      0.0580
     78 H202       17.1410   22.3050   19.4440 H     900  KNI900      0.0580
     79 H231       19.0520   26.2340   13.4480 H     900  KNI900      0.0250
     80 H232       18.6140   24.9070   14.4420 H     900  KNI900      0.0250
     81 H233       17.9210   26.4880   14.7490 H     900  KNI900      0.0250
     82 H241       20.6510   24.0930   15.2000 H     900  KNI900      0.0250
     83 H242       21.1530   24.9180   13.7300 H     900  KNI900      0.0250
     84 H243       22.0320   25.1580   15.2850 H     900  KNI900      0.0250
     85 H251       20.0670   28.2740   15.5640 H     900  KNI900      0.0250
     86 H252       21.6110   27.4530   15.8290 H     900  KNI900      0.0250
     87 H253       21.0700   27.7360   14.1500 H     900  KNI900      0.0250
     88 H271       13.3230   18.7770   22.6720 H     900  KNI900      0.0340
     89 H272       12.3840   19.2820   21.2680 H     900  KNI900      0.0340
     90 H273       12.7380   17.5870   21.5630 H     900  KNI900      0.0340
@<TRIPOS>BOND
     1     1     2   ar
     2     1     5   ar
     3     1    54    1
     4     2    15   ar
     5     3    18    1
     6     3    23    1
     7     4    40    1
     8     4    25    1
     9     5     9   ar
    10     5    55    1
    11     6    39    1
    12     6    47    1
    13     6    50    1
    14     6    24    1
    15     7    53    1
    16     7    28    1
    17     8    32    1
    18     8    33    1
    19     9    12   ar
    20     9    18   ar
    21    10    27    1
    22    10    48    1
    23    10    51    1
    24    10    26    1
    25    11    24    2
    26    12    15   ar
    27    12    22   ar
    28    13    31    1
    29    13    33    1
    30    13    30   am
    31    14    30    2
    32    15    56    1
    33    16    35    1
    34    16    49    1
    35    16    52    1
    36    16    34    1
    37    17    34    2
    38    18    20   ar
    39    19    26    2
    40    20    21   ar
    41    20    57    1
    42    21    22   ar
    43    21    58    1
    44    22    59    1
    45    23    24    1
    46    23    69    1
    47    23    70    1
    48    25    71    1
    49    25    72    1
    50    25    39    1
    51    26    39    1
    52    27    60    1
    53    27    28    1
    54    27    29    1
    55    28    61    1
    56    28    30    1
    57    29    73    1
    58    29    74    1
    59    29    41    1
    60    31    32    1
    61    31    34    1
    62    31    62    1
    63    32    75    1
    64    32    76    1
    65    33    77    1
    66    33    78    1
    67    35    36    1
    68    35    37    1
    69    35    38    1
    70    36    79    1
    71    36    80    1
    72    36    81    1
    73    37    82    1
    74    37    83    1
    75    37    84    1
    76    38    85    1
    77    38    86    1
    78    38    87    1
    79    39    63    1
    80    40    88    1
    81    40    89    1
    82    40    90    1
    83    41    42   ar
    84    41    46   ar
    85    42    43   ar
    86    42    64    1
    87    43    65    1
    88    43    44   ar
    89    44    45   ar
    90    44    66    1
    91    45    67    1
    92    45    46   ar
    93    46    68    1
